pglib_opf_case4837_goc.m
%%%%%%%%%%%%%%%%%%%%%%%%%%%%%%%%%%%%%%%%%%%%%%%%%%%%%%%%%%%%%%%%%%%%%%%%%%%
%%%%                                                                  %%%%%
%%%%    IEEE PES Power Grid Library - Optimal Power Flow - v20.04     %%%%%
%%%%          (https://github.com/power-grid-lib/pglib-opf)           %%%%%
%%%%               Benchmark Group - Typical Operations               %%%%%
%%%%                         12 - July - 2020                         %%%%%
%%%%                                                                  %%%%%
%%%%%%%%%%%%%%%%%%%%%%%%%%%%%%%%%%%%%%%%%%%%%%%%%%%%%%%%%%%%%%%%%%%%%%%%%%%
%
%   This is a synthetic 4,837 bus case, developed for use in ARPA-e's Grid
%   Optimization Competition, Challenge 1.
%
%   https://gocompetition.energy.gov/challenges/22/datasets
%
%   Copyright (c) 2020 University of Wisconsin-Madison
%   https://dev.epigrids.discovery.wisc.edu/
%   Licensed under the Creative Commons Attribution 4.0 International license,
%   http://creativecommons.org/licenses/by/4.0/
%
function mpc = pglib_opf_case4837_goc
mpc.version = '2';
mpc.baseMVA = 100.0;

%% bus data
%	bus_i	type	Pd	Qd	Gs	Bs	area	Vm	Va	baseKV	zone	Vmax	Vmin
mpc.bus = [
	39876	 1	 0.0	 0.0	 0.0	 0.0	 1	    1.00000	    0.00000	 138.0	 1	    1.10000	    0.90000;
	39877	 1	 0.0	 0.0	 0.0	 0.0	 1	    1.00000	    0.00000	 69.0	 1	    1.10000	    0.90000;
	39879	 1	 0.0	 0.0	 0.0	 0.0	 1	    1.00000	    0.00000	 138.0	 1	    1.10000	    0.90000;
	39880	 2	 0.0	 0.0	 0.0	 0.0	 1	    1.00000	    0.00000	 138.0	 1	    1.10000	    0.90000;
	39881	 1	 0.0	 0.0	 0.0	 0.0	 1	    1.00000	    0.00000	 69.0	 1	    1.10000	    0.90000;
	39882	 1	 0.0	 0.0	 0.0	 0.0	 1	    1.00000	    0.00000	 69.0	 1	    1.10000	    0.90000;
	39883	 1	 0.0	 0.0	 0.0	 0.0	 1	    1.00000	    0.00000	 69.0	 1	    1.10000	    0.90000;
	39884	 1	 0.0	 0.0	 0.0	 0.0	 1	    1.00000	    0.00000	 69.0	 1	    1.10000	    0.90000;
	39885	 1	 0.0	 0.0	 0.0	 0.0	 1	    1.00000	    0.00000	 69.0	 1	    1.10000	    0.90000;
	39886	 1	 0.0	 0.0	 0.0	 0.0	 1	    1.00000	    0.00000	 69.0	 1	    1.10000	    0.90000;
	39887	 1	 0.0	 0.0	 0.0	 0.0	 1	    1.00000	    0.00000	 69.0	 1	    1.10000	    0.90000;
	39888	 1	 0.0	 0.0	 0.0	 0.0	 1	    1.00000	    0.00000	 69.0	 1	    1.10000	    0.90000;
	39889	 1	 0.0	 0.0	 0.0	 0.0	 1	    1.00000	    0.00000	 69.0	 1	    1.10000	    0.90000;
	39890	 1	 0.0	 0.0	 0.0	 0.0	 1	    1.00000	    0.00000	 230.0	 1	    1.10000	    0.90000;
	39891	 1	 0.0	 0.0	 0.0	 0.0	 1	    1.00000	    0.00000	 138.0	 1	    1.10000	    0.90000;
	39892	 1	 0.0	 0.0	 0.0	 0.0	 1	    1.00000	    0.00000	 69.0	 1	    1.10000	    0.90000;
	39894	 1	 0.0	 0.0	 0.0	 0.0	 1	    1.00000	    0.00000	 69.0	 1	    1.10000	    0.90000;
	39895	 1	 0.0	 0.0	 0.0	 0.0	 1	    1.00000	    0.00000	 69.0	 1	    1.10000	    0.90000;
	39896	 2	 0.0	 0.0	 0.0	 0.0	 1	    1.00000	    0.00000	 69.0	 1	    1.10000	    0.90000;
	39898	 1	 0.0	 0.0	 0.0	 0.0	 1	    1.00000	    0.00000	 69.0	 1	    1.10000	    0.90000;
	39901	 1	 0.0	 0.0	 0.0	 0.0	 1	    1.00000	    0.00000	 69.0	 1	    1.10000	    0.90000;
	39902	 1	 0.0	 0.0	 0.0	 0.0	 1	    1.00000	    0.00000	 69.0	 1	    1.10000	    0.90000;
	39905	 1	 0.0	 0.0	 0.0	 0.0	 1	    1.00000	    0.00000	 69.0	 1	    1.10000	    0.90000;
	39908	 2	 0.0	 0.0	 0.0	 0.0	 1	    1.00000	    0.00000	 69.0	 1	    1.10000	    0.90000;
	39909	 1	 0.0	 0.0	 0.0	 0.0	 1	    1.00000	    0.00000	 69.0	 1	    1.10000	    0.90000;
	39912	 1	 0.0	 0.0	 0.0	 0.0	 1	    1.00000	    0.00000	 69.0	 1	    1.10000	    0.90000;
	39914	 1	 0.0	 0.0	 0.0	 0.0	 1	    1.00000	    0.00000	 69.0	 1	    1.10000	    0.90000;
	39915	 1	 0.0	 0.0	 0.0	 0.0	 1	    1.00000	    0.00000	 69.0	 1	    1.10000	    0.90000;
	39917	 1	 0.0	 0.0	 0.0	 0.0	 1	    1.00000	    0.00000	 69.0	 1	    1.10000	    0.90000;
	39922	 1	 0.0	 0.0	 0.0	 0.0	 1	    1.00000	    0.00000	 69.0	 1	    1.10000	    0.90000;
	39925	 1	 0.0	 0.0	 0.0	 0.0	 1	    1.00000	    0.00000	 138.0	 1	    1.10000	    0.90000;
	39926	 1	 0.0	 0.0	 0.0	 0.0	 1	    1.00000	    0.00000	 69.0	 1	    1.10000	    0.90000;
	39927	 1	 0.0	 0.0	 0.0	 0.0	 1	    1.00000	    0.00000	 69.0	 1	    1.10000	    0.90000;
	39928	 1	 0.0	 0.0	 0.0	 0.0	 1	    1.00000	    0.00000	 69.0	 1	    1.10000	    0.90000;
	39929	 1	 0.0	 0.0	 0.0	 0.0	 1	    1.00000	    0.00000	 69.0	 1	    1.10000	    0.90000;
	39931	 1	 0.0	 0.0	 0.0	 0.0	 1	    1.00000	    0.00000	 69.0	 1	    1.10000	    0.90000;
	39934	 1	 0.0	 0.0	 0.0	 0.0	 1	    1.00000	    0.00000	 138.0	 1	    1.10000	    0.90000;
	39935	 1	 0.0	 0.0	 0.0	 0.0	 1	    1.00000	    0.00000	 69.0	 1	    1.10000	    0.90000;
	39937	 1	 0.0	 0.0	 0.0	 0.0	 1	    1.00000	    0.00000	 138.0	 1	    1.10000	    0.90000;
	39938	 1	 0.0	 0.0	 0.0	 0.0	 1	    1.00000	    0.00000	 138.0	 1	    1.10000	    0.90000;
	39939	 1	 0.0	 0.0	 0.0	 0.0	 1	    1.00000	    0.00000	 69.0	 1	    1.10000	    0.90000;
	39940	 1	 0.0	 0.0	 0.0	 0.0	 1	    1.00000	    0.00000	 69.0	 1	    1.10000	    0.90000;
	39943	 1	 0.0	 0.0	 0.0	 0.0	 1	    1.00000	    0.00000	 69.0	 1	    1.10000	    0.90000;
	39945	 1	 0.0	 0.0	 0.0	 0.0	 1	    1.00000	    0.00000	 69.0	 1	    1.10000	    0.90000;
	39946	 1	 0.0	 0.0	 0.0	 0.0	 1	    1.00000	    0.00000	 69.0	 1	    1.10000	    0.90000;
	39952	 1	 0.0	 0.0	 0.0	 0.0	 1	    1.00000	    0.00000	 69.0	 1	    1.10000	    0.90000;
	39953	 1	 0.0	 0.0	 0.0	 0.0	 1	    1.00000	    0.00000	 69.0	 1	    1.10000	    0.90000;
	39954	 1	 0.0	 0.0	 0.0	 0.0	 1	    1.00000	    0.00000	 69.0	 1	    1.10000	    0.90000;
	39955	 1	 0.0	 0.0	 0.0	 0.0	 1	    1.00000	    0.00000	 69.0	 1	    1.10000	    0.90000;
	39956	 1	 0.0	 0.0	 0.0	 0.0	 1	    1.00000	    0.00000	 69.0	 1	    1.10000	    0.90000;
	39957	 1	 0.0	 0.0	 0.0	 0.0	 1	    1.00000	    0.00000	 69.0	 1	    1.10000	    0.90000;
	39958	 1	 0.0	 0.0	 0.0	 0.0	 1	    1.00000	    0.00000	 345.0	 1	    1.10000	    0.90000;
	39959	 1	 0.0	 0.0	 0.0	 0.0	 1	    1.00000	    0.00000	 138.0	 1	    1.10000	    0.90000;
	39960	 1	 0.0	 0.0	 0.0	 0.0	 1	    1.00000	    0.00000	 138.0	 1	    1.10000	    0.90000;
	39961	 1	 0.0	 0.0	 0.0	 0.0	 1	    1.00000	    0.00000	 69.0	 1	    1.10000	    0.90000;
	39962	 1	 0.0	 0.0	 0.0	 0.0	 1	    1.00000	    0.00000	 69.0	 1	    1.10000	    0.90000;
	39963	 1	 0.0	 0.0	 0.0	 0.0	 1	    1.00000	    0.00000	 69.0	 1	    1.10000	    0.90000;
	39964	 1	 0.0	 0.0	 0.0	 0.0	 1	    1.00000	    0.00000	 69.0	 1	    1.10000	    0.90000;
	39965	 1	 0.0	 0.0	 0.0	 0.0	 1	    1.00000	    0.00000	 69.0	 1	    1.10000	    0.90000;
	39966	 1	 0.0	 0.0	 0.0	 0.0	 1	    1.00000	    0.00000	 69.0	 1	    1.10000	    0.90000;
	39967	 1	 0.0	 0.0	 0.0	 0.0	 1	    1.00000	    0.00000	 69.0	 1	    1.10000	    0.90000;
	39968	 1	 0.0	 0.0	 0.0	 0.0	 1	    1.00000	    0.00000	 138.0	 1	    1.10000	    0.90000;
	39969	 1	 0.0	 0.0	 0.0	 0.0	 1	    1.00000	    0.00000	 69.0	 1	    1.10000	    0.90000;
	39970	 1	 0.0	 0.0	 0.0	 0.0	 1	    1.00000	    0.00000	 138.0	 1	    1.10000	    0.90000;
	39971	 1	 0.0	 0.0	 0.0	 0.0	 1	    1.00000	    0.00000	 69.0	 1	    1.10000	    0.90000;
	39972	 1	 0.0	 0.0	 0.0	 0.0	 1	    1.00000	    0.00000	 69.0	 1	    1.10000	    0.90000;
	39973	 1	 0.0	 0.0	 0.0	 0.0	 1	    1.00000	    0.00000	 69.0	 1	    1.10000	    0.90000;
	39974	 1	 0.0	 0.0	 0.0	 0.0	 1	    1.00000	    0.00000	 230.0	 1	    1.10000	    0.90000;
	39975	 1	 0.0	 0.0	 0.0	 0.0	 1	    1.00000	    0.00000	 69.0	 1	    1.10000	    0.90000;
	39976	 1	 0.0	 0.0	 0.0	 0.0	 1	    1.00000	    0.00000	 69.0	 1	    1.10000	    0.90000;
	39979	 1	 0.0	 0.0	 0.0	 0.0	 1	    1.00000	    0.00000	 69.0	 1	    1.10000	    0.90000;
	39980	 1	 0.0	 0.0	 0.0	 0.0	 1	    1.00000	    0.00000	 69.0	 1	    1.10000	    0.90000;
	39981	 1	 0.0	 0.0	 0.0	 0.0	 1	    1.00000	    0.00000	 138.0	 1	    1.10000	    0.90000;
	39982	 1	 0.0	 0.0	 0.0	 0.0	 1	    1.00000	    0.00000	 69.0	 1	    1.10000	    0.90000;
	39983	 1	 0.0	 0.0	 0.0	 0.0	 1	    1.00000	    0.00000	 69.0	 1	    1.10000	    0.90000;
	39984	 1	 0.0	 0.0	 0.0	 0.0	 1	    1.00000	    0.00000	 69.0	 1	    1.10000	    0.90000;
	39985	 1	 0.0	 0.0	 0.0	 0.0	 1	    1.00000	    0.00000	 69.0	 1	    1.10000	    0.90000;
	39986	 1	 0.0	 0.0	 0.0	 0.0	 1	    1.00000	    0.00000	 69.0	 1	    1.10000	    0.90000;
	39988	 1	 0.0	 0.0	 0.0	 0.0	 1	    1.00000	    0.00000	 138.0	 1	    1.10000	    0.90000;
	39989	 1	 0.0	 0.0	 0.0	 0.0	 1	    1.00000	    0.00000	 69.0	 1	    1.10000	    0.90000;
	39990	 1	 0.0	 0.0	 0.0	 0.0	 1	    1.00000	    0.00000	 69.0	 1	    1.10000	    0.90000;
	39991	 1	 0.0	 0.0	 0.0	 0.0	 1	    1.00000	    0.00000	 69.0	 1	    1.10000	    0.90000;
	39992	 1	 0.0	 0.0	 0.0	 0.0	 1	    1.00000	    0.00000	 69.0	 1	    1.10000	    0.90000;
	39993	 1	 0.0	 0.0	 0.0	 0.0	 1	    1.00000	    0.00000	 69.0	 1	    1.10000	    0.90000;
	39994	 1	 0.0	 0.0	 0.0	 0.0	 1	    1.00000	    0.00000	 138.0	 1	    1.10000	    0.90000;
	39995	 1	 0.0	 0.0	 0.0	 0.0	 1	    1.00000	    0.00000	 69.0	 1	    1.10000	    0.90000;
	39996	 1	 0.0	 0.0	 0.0	 0.0	 1	    1.00000	    0.00000	 69.0	 1	    1.10000	    0.90000;
	39997	 1	 0.0	 0.0	 0.0	 0.0	 1	    1.00000	    0.00000	 69.0	 1	    1.10000	    0.90000;
	39998	 1	 0.0	 0.0	 0.0	 0.0	 1	    1.00000	    0.00000	 69.0	 1	    1.10000	    0.90000;
	39999	 1	 0.0	 0.0	 0.0	 0.0	 1	    1.00000	    0.00000	 69.0	 1	    1.10000	    0.90000;
	40000	 1	 0.0	 0.0	 0.0	 0.0	 1	    1.00000	    0.00000	 69.0	 1	    1.10000	    0.90000;
	40001	 1	 0.0	 0.0	 0.0	 0.0	 1	    1.00000	    0.00000	 69.0	 1	    1.10000	    0.90000;
	40003	 2	 0.0	 0.0	 0.0	 0.0	 1	    1.00000	    0.00000	 69.0	 1	    1.10000	    0.90000;
	40004	 1	 0.0	 0.0	 0.0	 0.0	 1	    1.00000	    0.00000	 138.0	 1	    1.10000	    0.90000;
	40005	 2	 0.0	 0.0	 0.0	 0.0	 1	    1.00000	    0.00000	 69.0	 1	    1.10000	    0.90000;
	40006	 1	 0.0	 0.0	 0.0	 0.0	 1	    1.00000	    0.00000	 69.0	 1	    1.10000	    0.90000;
	40008	 2	 0.0	 0.0	 0.0	 0.0	 1	    1.00000	    0.00000	 69.0	 1	    1.10000	    0.90000;
	40009	 1	 0.0	 0.0	 0.0	 0.0	 1	    1.00000	    0.00000	 69.0	 1	    1.10000	    0.90000;
	40011	 1	 0.0	 0.0	 0.0	 0.0	 1	    1.00000	    0.00000	 69.0	 1	    1.10000	    0.90000;
	40012	 1	 0.0	 0.0	 0.0	 0.0	 1	    1.00000	    0.00000	 69.0	 1	    1.10000	    0.90000;
	40013	 1	 0.0	 0.0	 0.0	 0.0	 1	    1.00000	    0.00000	 69.0	 1	    1.10000	    0.90000;
	40014	 1	 0.0	 0.0	 0.0	 0.0	 1	    1.00000	    0.00000	 69.0	 1	    1.10000	    0.90000;
	40015	 2	 0.0	 0.0	 0.0	 0.0	 1	    1.00000	    0.00000	 69.0	 1	    1.10000	    0.90000;
	40017	 1	 0.0	 0.0	 0.0	 0.0	 1	    1.00000	    0.00000	 69.0	 1	    1.10000	    0.90000;
	40018	 1	 0.0	 0.0	 0.0	 0.0	 1	    1.00000	    0.00000	 69.0	 1	    1.10000	    0.90000;
	40019	 1	 0.0	 0.0	 0.0	 0.0	 1	    1.00000	    0.00000	 69.0	 1	    1.10000	    0.90000;
	40021	 1	 0.0	 0.0	 0.0	 0.0	 1	    1.00000	    0.00000	 69.0	 1	    1.10000	    0.90000;
	40022	 1	 0.0	 0.0	 0.0	 0.0	 1	    1.00000	    0.00000	 69.0	 1	    1.10000	    0.90000;
	40023	 1	 0.0	 0.0	 0.0	 0.0	 1	    1.00000	    0.00000	 69.0	 1	    1.10000	    0.90000;
	40024	 1	 -12.0	 -8.0	 0.0	 0.0	 1	    1.00000	    0.00000	 69.0	 1	    1.10000	    0.90000;
	40025	 1	 0.0	 0.0	 0.0	 0.0	 1	    1.00000	    0.00000	 69.0	 1	    1.10000	    0.90000;
	40026	 1	 0.0	 0.0	 0.0	 0.0	 1	    1.00000	    0.00000	 138.0	 1	    1.10000	    0.90000;
	40027	 1	 0.0	 0.0	 0.0	 0.0	 1	    1.00000	    0.00000	 69.0	 1	    1.10000	    0.90000;
	40028	 1	 0.0	 0.0	 0.0	 0.0	 1	    1.00000	    0.00000	 69.0	 1	    1.10000	    0.90000;
	40029	 1	 0.0	 0.0	 0.0	 0.0	 1	    1.00000	    0.00000	 69.0	 1	    1.10000	    0.90000;
	40030	 1	 0.0	 0.0	 0.0	 0.0	 1	    1.00000	    0.00000	 69.0	 1	    1.10000	    0.90000;
	40034	 1	 0.0	 0.0	 0.0	 0.0	 1	    1.00000	    0.00000	 69.0	 1	    1.10000	    0.90000;
	40036	 1	 0.0	 0.0	 0.0	 0.0	 1	    1.00000	    0.00000	 69.0	 1	    1.10000	    0.90000;
	40037	 1	 0.0	 0.0	 0.0	 0.0	 1	    1.00000	    0.00000	 69.0	 1	    1.10000	    0.90000;
	40040	 1	 0.0	 0.0	 0.0	 22.2108132297	 1	    1.00000	    0.00000	 69.0	 1	    1.10000	    0.90000;
	40041	 1	 0.0	 0.0	 0.0	 0.0	 1	    1.00000	    0.00000	 69.0	 1	    1.10000	    0.90000;
	40042	 1	 0.0	 0.0	 0.0	 0.0	 1	    1.00000	    0.00000	 69.0	 1	    1.10000	    0.90000;
	40043	 1	 0.0	 0.0	 0.0	 0.0	 1	    1.00000	    0.00000	 69.0	 1	    1.10000	    0.90000;
	40044	 1	 0.0	 0.0	 0.0	 0.0	 1	    1.00000	    0.00000	 69.0	 1	    1.10000	    0.90000;
	40045	 1	 0.0	 0.0	 0.0	 0.0	 1	    1.00000	    0.00000	 69.0	 1	    1.10000	    0.90000;
	40046	 1	 0.0	 0.0	 0.0	 0.0	 1	    1.00000	    0.00000	 69.0	 1	    1.10000	    0.90000;
	40047	 1	 0.0	 0.0	 0.0	 0.0	 1	    1.00000	    0.00000	 69.0	 1	    1.10000	    0.90000;
	40048	 1	 0.0	 0.0	 0.0	 0.0	 1	    1.00000	    0.00000	 69.0	 1	    1.10000	    0.90000;
	40049	 1	 0.0	 0.0	 0.0	 0.0	 1	    1.00000	    0.00000	 69.0	 1	    1.10000	    0.90000;
	40050	 1	 0.0	 0.0	 0.0	 0.0	 1	    1.00000	    0.00000	 69.0	 1	    1.10000	    0.90000;
	40051	 1	 0.0	 0.0	 0.0	 0.0	 1	    1.00000	    0.00000	 69.0	 1	    1.10000	    0.90000;
	40052	 1	 0.0	 0.0	 0.0	 0.0	 1	    1.00000	    0.00000	 230.0	 1	    1.10000	    0.90000;
	40054	 1	 0.0	 0.0	 0.0	 0.0	 1	    1.00000	    0.00000	 69.0	 1	    1.10000	    0.90000;
	40055	 1	 0.0	 0.0	 0.0	 0.0	 1	    1.00000	    0.00000	 69.0	 1	    1.10000	    0.90000;
	40056	 2	 0.0	 0.0	 0.0	 0.0	 1	    1.00000	    0.00000	 69.0	 1	    1.10000	    0.90000;
	40057	 1	 0.0	 0.0	 0.0	 0.0	 1	    1.00000	    0.00000	 69.0	 1	    1.10000	    0.90000;
	40061	 1	 0.0	 0.0	 0.0	 0.0	 1	    1.00000	    0.00000	 69.0	 1	    1.10000	    0.90000;
	40062	 1	 0.0	 0.0	 0.0	 0.0	 1	    1.00000	    0.00000	 69.0	 1	    1.10000	    0.90000;
	40063	 1	 0.0	 0.0	 0.0	 0.0	 1	    1.00000	    0.00000	 69.0	 1	    1.10000	    0.90000;
	40064	 1	 0.0	 0.0	 0.0	 0.0	 1	    1.00000	    0.00000	 69.0	 1	    1.10000	    0.90000;
	40065	 1	 0.0	 0.0	 0.0	 0.0	 1	    1.00000	    0.00000	 69.0	 1	    1.10000	    0.90000;
	40070	 2	 0.0	 0.0	 0.0	 0.0	 1	    1.00000	    0.00000	 69.0	 1	    1.10000	    0.90000;
	40071	 1	 0.0	 0.0	 0.0	 0.0	 1	    1.00000	    0.00000	 69.0	 1	    1.10000	    0.90000;
	40074	 1	 0.0	 0.0	 0.0	 0.0	 1	    1.00000	    0.00000	 69.0	 1	    1.10000	    0.90000;
	40076	 1	 0.0	 0.0	 0.0	 0.0	 1	    1.00000	    0.00000	 69.0	 1	    1.10000	    0.90000;
	40079	 1	 0.0	 0.0	 0.0	 0.0	 1	    1.00000	    0.00000	 138.0	 1	    1.10000	    0.90000;
	40081	 2	 0.0	 0.0	 0.0	 0.0	 1	    1.00000	    0.00000	 69.0	 1	    1.10000	    0.90000;
	40086	 1	 0.0	 0.0	 0.0	 0.0	 1	    1.00000	    0.00000	 69.0	 1	    1.10000	    0.90000;
	40091	 1	 0.0	 0.0	 0.0	 0.0	 1	    1.00000	    0.00000	 69.0	 1	    1.10000	    0.90000;
	40092	 1	 0.0	 0.0	 0.0	 0.0	 1	    1.00000	    0.00000	 69.0	 1	    1.10000	    0.90000;
	40097	 1	 0.0	 0.0	 0.0	 0.0	 1	    1.00000	    0.00000	 69.0	 1	    1.10000	    0.90000;
	40098	 1	 0.0	 0.0	 0.0	 0.0	 1	    1.00000	    0.00000	 138.0	 1	    1.10000	    0.90000;
	40099	 1	 0.0	 0.0	 0.0	 0.0	 1	    1.00000	    0.00000	 138.0	 1	    1.10000	    0.90000;
	40101	 1	 0.0	 0.0	 0.0	 0.0	 1	    1.00000	    0.00000	 69.0	 1	    1.10000	    0.90000;
	40102	 1	 0.0	 0.0	 0.0	 0.0	 1	    1.00000	    0.00000	 69.0	 1	    1.10000	    0.90000;
	40108	 1	 0.0	 0.0	 0.0	 0.0	 1	    1.00000	    0.00000	 69.0	 1	    1.10000	    0.90000;
	40109	 1	 0.0	 0.0	 0.0	 0.0	 1	    1.00000	    0.00000	 69.0	 1	    1.10000	    0.90000;
	40110	 1	 0.0	 0.0	 0.0	 0.0	 1	    1.00000	    0.00000	 69.0	 1	    1.10000	    0.90000;
	40111	 1	 241.2	 49.8	 0.0	 0.0	 1	    1.00000	    0.00000	 69.0	 1	    1.10000	    0.90000;
	40112	 1	 0.0	 0.0	 0.0	 0.0	 1	    1.00000	    0.00000	 69.0	 1	    1.10000	    0.90000;
	40113	 1	 0.0	 0.0	 0.0	 0.0	 1	    1.00000	    0.00000	 69.0	 1	    1.10000	    0.90000;
	40114	 1	 0.0	 0.0	 0.0	 0.0	 1	    1.00000	    0.00000	 230.0	 1	    1.10000	    0.90000;
	40115	 1	 0.0	 0.0	 0.0	 0.0	 1	    1.00000	    0.00000	 69.0	 1	    1.10000	    0.90000;
	40116	 1	 0.0	 0.0	 0.0	 0.0	 1	    1.00000	    0.00000	 69.0	 1	    1.10000	    0.90000;
	40118	 1	 0.0	 0.0	 0.0	 0.0	 1	    1.00000	    0.00000	 69.0	 1	    1.10000	    0.90000;
	40119	 1	 0.0	 0.0	 0.0	 0.0	 1	    1.00000	    0.00000	 69.0	 1	    1.10000	    0.90000;
	40120	 1	 0.0	 0.0	 0.0	 0.0	 1	    1.00000	    0.00000	 69.0	 1	    1.10000	    0.90000;
	40121	 1	 0.0	 0.0	 0.0	 0.0	 1	    1.00000	    0.00000	 69.0	 1	    1.10000	    0.90000;
	40122	 1	 0.0	 0.0	 0.0	 0.0	 1	    1.00000	    0.00000	 69.0	 1	    1.10000	    0.90000;
	40123	 1	 0.0	 0.0	 0.0	 0.0	 1	    1.00000	    0.00000	 69.0	 1	    1.10000	    0.90000;
	40125	 1	 0.0	 0.0	 0.0	 0.0	 1	    1.00000	    0.00000	 69.0	 1	    1.10000	    0.90000;
	40126	 1	 0.0	 0.0	 0.0	 0.0	 1	    1.00000	    0.00000	 69.0	 1	    1.10000	    0.90000;
	40127	 1	 0.0	 0.0	 0.0	 0.0	 1	    1.00000	    0.00000	 69.0	 1	    1.10000	    0.90000;
	40128	 1	 0.0	 0.0	 0.0	 0.0	 1	    1.00000	    0.00000	 69.0	 1	    1.10000	    0.90000;
	40129	 1	 0.0	 0.0	 0.0	 0.0	 1	    1.00000	    0.00000	 69.0	 1	    1.10000	    0.90000;
	40130	 1	 0.0	 0.0	 0.0	 0.0	 1	    1.00000	    0.00000	 69.0	 1	    1.10000	    0.90000;
	40131	 1	 0.0	 0.0	 0.0	 0.0	 1	    1.00000	    0.00000	 69.0	 1	    1.10000	    0.90000;
	40132	 1	 0.0	 0.0	 0.0	 0.0	 1	    1.00000	    0.00000	 69.0	 1	    1.10000	    0.90000;
	40133	 1	 0.0	 0.0	 0.0	 0.0	 1	    1.00000	    0.00000	 69.0	 1	    1.10000	    0.90000;
	40135	 1	 0.0	 0.0	 0.0	 0.0	 1	    1.00000	    0.00000	 69.0	 1	    1.10000	    0.90000;
	40137	 1	 0.0	 0.0	 0.0	 0.0	 1	    1.00000	    0.00000	 69.0	 1	    1.10000	    0.90000;
	40138	 1	 0.0	 0.0	 0.0	 0.0	 1	    1.00000	    0.00000	 69.0	 1	    1.10000	    0.90000;
	40139	 1	 0.0	 0.0	 0.0	 0.0	 1	    1.00000	    0.00000	 138.0	 1	    1.10000	    0.90000;
	40141	 1	 0.0	 0.0	 0.0	 0.0	 1	    1.00000	    0.00000	 69.0	 1	    1.10000	    0.90000;
	40144	 1	 0.0	 0.0	 0.0	 0.0	 1	    1.00000	    0.00000	 69.0	 1	    1.10000	    0.90000;
	40145	 2	 0.0	 0.0	 0.0	 0.0	 1	    1.00000	    0.00000	 69.0	 1	    1.10000	    0.90000;
	40147	 1	 0.0	 0.0	 0.0	 0.0	 1	    1.00000	    0.00000	 69.0	 1	    1.10000	    0.90000;
	40150	 1	 0.0	 0.0	 0.0	 0.0	 1	    1.00000	    0.00000	 69.0	 1	    1.10000	    0.90000;
	40158	 1	 0.0	 0.0	 0.0	 0.0	 1	    1.00000	    0.00000	 138.0	 1	    1.10000	    0.90000;
	40162	 1	 0.0	 0.0	 0.0	 0.0	 1	    1.00000	    0.00000	 69.0	 1	    1.10000	    0.90000;
	40172	 1	 41.604	 9.288	 0.0	 0.0	 1	    1.00000	    0.00000	 69.0	 1	    1.10000	    0.90000;
	40179	 1	 16.596	 2.365	 0.0	 0.0	 1	    1.00000	    0.00000	 69.0	 1	    1.10000	    0.90000;
	40180	 1	 2.208	 0.315	 0.0	 0.0	 1	    1.00000	    0.00000	 69.0	 1	    1.10000	    0.90000;
	40181	 1	 2.904	 0.59	 0.0	 0.0	 1	    1.00000	    0.00000	 69.0	 1	    1.10000	    0.90000;
	40183	 1	 9.804	 2.457	 0.0	 0.0	 1	    1.00000	    0.00000	 69.0	 1	    1.10000	    0.90000;
	40186	 1	 111.724	 31.671	 0.0	 0.0	 1	    1.00000	    0.00000	 69.0	 1	    1.10000	    0.90000;
	40189	 1	 32.124	 8.184	 0.0	 0.0	 1	    1.00000	    0.00000	 69.0	 1	    1.10000	    0.90000;
	40197	 1	 15.81	 3.21	 0.0	 0.0	 1	    1.00000	    0.00000	 138.0	 1	    1.10000	    0.90000;
	40198	 1	 21.63	 6.23	 0.0	 0.0	 1	    1.00000	    0.00000	 69.0	 1	    1.10000	    0.90000;
	40201	 1	 34.85	 7.077	 0.0	 0.0	 1	    1.00000	    0.00000	 69.0	 1	    1.10000	    0.90000;
...
];

%% generator data
%	bus	Pg	Qg	Qmax	Qmin	Vg	mBase	status	Pmax	Pmin
mpc.gen = [
	39880	 53.8	 15.1	 96.9	 -66.7	 1.0	 100.0	 1	 107.6	 0.0;
	39896	 12.7	 0.0	 44.1	 -44.1	 1.0	 100.0	 1	 25.4	 0.0;
	39908	 35.0	 5.95	 38.2	 -26.3	 1.0	 100.0	 1	 64.0	 6.0;
	39908	 35.0	 5.95	 38.2	 -26.3	 1.0	 100.0	 1	 64.0	 6.0;
	40003	 33.0	 0.0	 25.6	 -25.6	 1.0	 100.0	 1	 64.0	 2.0;
	40005	 43.365	 10.05	 44.6	 -24.5	 1.0	 100.0	 1	 61.0	 25.73;
	40005	 64.04	 14.85	 66.0	 -36.3	 1.0	 100.0	 1	 90.0	 38.08;
	40008	 40.5	 5.35	 34.4	 -23.7	 1.0	 100.0	 1	 61.0	 20.0;
	40015	 35.0	 4.85	 31.2	 -21.5	 1.0	 100.0	 1	 54.0	 16.0;
	40015	 35.0	 4.85	 31.2	 -21.5	 1.0	 100.0	 1	 54.0	 16.0;
	40015	 35.0	 4.85	 31.2	 -21.5	 1.0	 100.0	 1	 54.0	 16.0;
	40015	 25.0	 11.25	 40.5	 -18.0	 1.0	 100.0	 1	 46.0	 4.0;
	40015	 25.0	 11.25	 40.5	 -18.0	 1.0	 100.0	 1	 46.0	 4.0;
	40056	 20.45	 0.0	 45.6	 -45.6	 1.0	 100.0	 1	 40.9	 0.0;
	40070	 33.75	 13.65	 49.1	 -21.8	 1.0	 100.0	 1	 55.0	 12.5;
	40070	 28.0	 11.25	 40.5	 -18.0	 1.0	 100.0	 1	 46.0	 10.0;
	40081	 20.5	 10.25	 36.8	 -16.3	 1.0	 100.0	 1	 40.0	 1.0;
	40145	 23.0	 3.15	 20.2	 -13.9	 1.0	 100.0	 1	 36.0	 10.0;
	75435	 437.5	 61.3	 393.2	 -270.6	 1.0	 100.0	 1	 600.0	 275.0;
	75437	 406.0	 52.5	 337.0	 -232.0	 1.0	 100.0	 1	 562.0	 250.0;
	75439	 310.5	 0.0	 223.3	 -223.3	 1.0	 100.0	 1	 561.0	 60.0;
	75440	 113.5	 31.3	 135.4	 -72.8	 1.0	 100.0	 1	 182.0	 45.0;
	75442	 32.25	 15.05	 96.7	 -66.6	 1.0	 100.0	 1	 64.5	 0.0;
	75444	 140.0	 27.25	 118.0	 -63.5	 1.0	 100.0	 1	 160.0	 120.0;
	75444	 139.5	 27.25	 118.0	 -63.5	 1.0	 100.0	 1	 159.0	 120.0;
	75444	 109.5	 28.0	 121.2	 -65.2	 1.0	 100.0	 1	 164.0	 55.0;
	75446	 61.105	 13.2	 84.7	 -58.3	 1.0	 100.0	 1	 122.21	 0.0;
	75448	 121.5	 24.85	 107.5	 -57.8	 1.0	 100.0	 1	 148.0	 95.0;
	75448	 121.5	 24.85	 107.5	 -57.8	 1.0	 100.0	 1	 148.0	 95.0;
	75448	 130.0	 36.7	 158.7	 -85.3	 1.0	 100.0	 1	 197.0	 63.0;
	75450	 42.15	 0.0	 67.5	 -67.5	 1.0	 100.0	 1	 84.3	 0.0;
	75451	 63.75	 0.0	 66.1	 -66.1	 1.0	 100.0	 1	 127.5	 0.0;
	75454	 0.17	 0.0	 66.1	 -66.1	 1.0	 100.0	 1	 0.34	 0.0;
	75457	 3.52	 0.0	 66.1	 -66.1	 1.0	 100.0	 1	 7.04	 0.0;
	75458	 42.25	 0.0	 66.1	 -66.1	 1.0	 100.0	 1	 84.5	 0.0;
	75459	 90.5	 21.05	 91.1	 -49.0	 1.0	 100.0	 1	 116.0	 65.0;
	75459	 184.0	 26.35	 169.1	 -116.4	 1.0	 100.0	 1	 278.0	 90.0;
	75459	 312.5	 44.1	 282.9	 -194.7	 1.0	 100.0	 1	 375.0	 250.0;
	75461	 72.5	 19.5	 84.3	 -45.3	 1.0	 100.0	 1	 115.0	 30.0;
	75465	 28.125	 0.0	 49.6	 -49.6	 1.0	 100.0	 1	 56.25	 0.0;
	75466	 38.35	 0.0	 44.1	 -44.1	 1.0	 100.0	 1	 76.7	 0.0;
	75467	 33.3	 0.0	 43.7	 -43.7	 1.0	 100.0	 1	 66.6	 0.0;
	75468	 38.61	 7.45	 47.9	 -33.0	 1.0	 100.0	 1	 77.22	 0.0;
	75470	 44.45	 0.0	 43.2	 -43.2	 1.0	 100.0	 1	 88.9	 0.0;
	75482	 54.0	 15.05	 65.1	 -35.0	 1.0	 100.0	 1	 88.0	 20.0;
	75482	 32.0	 10.75	 46.5	 -25.0	 1.0	 100.0	 1	 64.0	 0.0;
	75484	 33.5	 5.4	 34.5	 -23.7	 1.0	 100.0	 1	 61.0	 6.0;
	75484	 40.0	 6.7	 43.1	 -29.7	 1.0	 100.0	 1	 74.0	 6.0;
	75484	 46.5	 7.85	 50.3	 -34.6	 1.0	 100.0	 1	 87.0	 6.0;
	75486	 41.0	 8.65	 37.5	 -20.2	 1.0	 100.0	 1	 52.0	 30.0;
	75486	 41.0	 8.65	 37.5	 -20.2	 1.0	 100.0	 1	 52.0	 30.0;
	75486	 40.5	 8.65	 37.5	 -20.2	 1.0	 100.0	 1	 51.0	 30.0;
	75488	 11.725	 0.0	 54.2	 -54.2	 1.0	 100.0	 1	 23.45	 0.0;
	75493	 32.5	 7.05	 30.4	 -16.3	 1.0	 100.0	 1	 40.0	 25.0;
	75493	 53.5	 11.7	 50.6	 -27.2	 1.0	 100.0	 1	 67.0	 40.0;
	75493	 505.0	 69.65	 446.8	 -307.5	 1.0	 100.0	 1	 645.0	 365.0;
	75493	 475.0	 54.8	 351.5	 -241.9	 1.0	 100.0	 1	 600.0	 350.0;
	75497	 20.0	 3.15	 20.1	 -13.8	 1.0	 100.0	 1	 34.0	 6.0;
	75497	 20.0	 3.15	 20.1	 -13.8	 1.0	 100.0	 1	 34.0	 6.0;
	75497	 44.0	 7.35	 47.0	 -32.3	 1.0	 100.0	 1	 82.0	 6.0;
	75500	 22.56	 5.35	 23.2	 -12.5	 1.0	 100.0	 1	 32.0	 13.12;
	75500	 157.45	 20.7	 132.9	 -91.5	 1.0	 100.0	 1	 218.0	 96.9;
	75502	 22.56	 5.1	 22.7	 -12.5	 1.0	 100.0	 1	 32.0	 13.12;
	75502	 22.0	 5.35	 23.2	 -12.5	 1.0	 100.0	 1	 32.0	 12.0;
	75503	 45.5	 5.35	 34.5	 -23.8	 1.0	 100.0	 1	 61.0	 30.0;
	75503	 23.5	 5.35	 23.2	 -12.5	 1.0	 100.0	 1	 32.0	 15.0;
	75507	 11.65	 13.95	 89.6	 -61.7	 1.0	 100.0	 1	 23.3	 0.0;
	75511	 10.56	 0.0	 58.2	 -58.2	 1.0	 100.0	 1	 21.12	 0.0;
	75513	 96.5	 25.15	 108.8	 -58.5	 1.0	 100.0	 1	 148.0	 45.0;
	75513	 42.0	 10.75	 46.5	 -25.0	 1.0	 100.0	 1	 64.0	 20.0;
	75514	 23.0	 5.35	 23.2	 -12.5	 1.0	 100.0	 1	 32.0	 14.0;
	75517	 81.0	 21.3	 92.2	 -49.6	 1.0	 100.0	 1	 117.0	 45.0;
	75517	 26.1	 7.15	 31.0	 -16.7	 1.0	 100.0	 1	 43.0	 9.2;
	75519	 17.655	 0.0	 70.8	 -70.8	 1.0	 100.0	 1	 35.31	 0.0;
	75523	 821.8	 92.45	 593.2	 -408.3	 1.0	 100.0	 1	 986.0	 657.6;
	75524	 822.05	 92.45	 593.2	 -408.3	 1.0	 100.0	 1	 986.0	 658.1;
	75529	 564.0	 88.35	 566.7	 -390.0	 1.0	 100.0	 1	 993.0	 135.0;
	75529	 563.5	 88.35	 566.7	 -390.0	 1.0	 100.0	 1	 993.0	 134.0;
	75533	 633.55	 85.95	 551.3	 -379.4	 1.0	 100.0	 1	 969.0	 298.1;
	75537	 475.0	 0.0	 349.3	 -349.3	 1.0	 100.0	 1	 800.0	 150.0;
	75537	 475.0	 0.0	 349.3	 -349.3	 1.0	 100.0	 1	 800.0	 150.0;
	75538	 466.0	 0.0	 349.3	 -349.3	 1.0	 100.0	 1	 800.0	 132.0;
	75538	 466.0	 0.0	 349.3	 -349.3	 1.0	 100.0	 1	 800.0	 132.0;
	75541	 467.5	 67.4	 432.4	 -297.6	 1.0	 100.0	 1	 610.0	 325.0;
	75541	 467.5	 67.4	 432.4	 -297.6	 1.0	 100.0	 1	 610.0	 325.0;
	75543	 340.5	 49.85	 319.7	 -220.0	 1.0	 100.0	 1	 561.0	 120.0;
	75543	 333.5	 49.85	 319.7	 -220.0	 1.0	 100.0	 1	 547.0	 120.0;
	75546	 412.5	 49.8	 319.4	 -219.8	 1.0	 100.0	 1	 585.0	 240.0;
	75546	 390.0	 49.8	 319.4	 -219.8	 1.0	 100.0	 1	 540.0	 240.0;
	75549	 403.0	 47.9	 307.3	 -211.5	 1.0	 100.0	 1	 556.0	 250.0;
	75549	 387.5	 47.9	 307.3	 -211.5	 1.0	 100.0	 1	 525.0	 250.0;
	75549	 387.5	 89.5	 387.4	 -208.4	 1.0	 100.0	 1	 525.0	 250.0;
	75551	 412.5	 46.6	 299.0	 -205.8	 1.0	 100.0	 1	 525.0	 300.0;
	75553	 213.0	 36.8	 236.3	 -162.7	 1.0	 100.0	 1	 331.0	 95.0;
	75555	 287.5	 63.15	 273.3	 -147.0	 1.0	 100.0	 1	 330.0	 245.0;
	75558	 259.0	 55.7	 241.0	 -129.6	 1.0	 100.0	 1	 318.0	 200.0;
	75558	 408.0	 46.55	 298.6	 -205.5	 1.0	 100.0	 1	 506.0	 310.0;
	75559	 21.5	 5.45	 23.6	 -12.7	 1.0	 100.0	 1	 33.0	 10.0;
	75559	 21.5	 5.45	 23.6	 -12.7	 1.0	 100.0	 1	 33.0	 10.0;
	75559	 21.5	 5.45	 23.6	 -12.7	 1.0	 100.0	 1	 33.0	 10.0;
	75559	 21.0	 5.45	 23.6	 -12.7	 1.0	 100.0	 1	 32.0	 10.0;
	75559	 228.3	 51.1	 226.9	 -124.7	 1.0	 100.0	 1	 307.0	 149.6;
	75560	 197.0	 51.65	 223.4	 -120.1	 1.0	 100.0	 1	 299.0	 95.0;
	75562	 200.0	 46.75	 202.3	 -108.8	 1.0	 100.0	 1	 270.0	 130.0;
	75562	 213.5	 50.9	 220.2	 -118.4	 1.0	 100.0	 1	 297.0	 130.0;
	75565	 42.25	 22.65	 145.3	 -100.0	 1.0	 100.0	 1	 84.5	 0.0;
	75567	 141.665	 29.2	 138.2	 -79.8	 1.0	 100.0	 1	 190.0	 93.33;
	75567	 220.62	 48.9	 217.2	 -119.4	 1.0	 100.0	 1	 298.0	 143.24;
	75568	 152.0	 16.85	 108.1	 -74.4	 1.0	 100.0	 1	 186.0	 118.0;
	75568	 54.5	 9.4	 45.8	 -27.0	 1.0	 100.0	 1	 67.0	 42.0;
	75568	 77.0	 16.25	 70.4	 -37.9	 1.0	 100.0	 1	 96.0	 58.0;
	75569	 72.8625	 16.4	 105.3	 -72.5	 1.0	 100.0	 1	 145.725	 0.0;
	75570	 147.0	 27.4	 118.5	 -63.7	 1.0	 100.0	 1	 160.0	 134.0;
	75570	 162.0	 30.05	 130.1	 -70.0	 1.0	 100.0	 1	 177.0	 147.0;
	75572	 43.0	 15.1	 96.9	 -66.7	 1.0	 100.0	 1	 86.0	 0.0;
	75574	 137.5	 28.5	 123.3	 -66.3	 1.0	 100.0	 1	 175.0	 100.0;
	75576	 45.54	 14.95	 95.9	 -66.0	 1.0	 100.0	 1	 91.08	 0.0;
	75576	 64.35	 14.95	 95.9	 -66.0	 1.0	 100.0	 1	 128.7	 0.0;
	75581	 113.82	 34.45	 130.1	 -61.2	 1.0	 100.0	 1	 156.0	 71.64;
	75581	 116.06	 35.15	 132.8	 -62.5	 1.0	 100.0	 1	 159.0	 73.12;
	75581	 167.0	 42.85	 185.4	 -99.7	 1.0	 100.0	 1	 239.0	 95.0;
	75581	 342.5	 85.7	 370.9	 -199.5	 1.0	 100.0	 1	 505.0	 180.0;
	75582	 100.0	 26.25	 113.6	 -61.1	 1.0	 100.0	 1	 153.0	 47.0;
	75582	 100.0	 26.25	 113.6	 -61.1	 1.0	 100.0	 1	 153.0	 47.0;
	75582	 101.5	 26.25	 113.6	 -61.1	 1.0	 100.0	 1	 156.0	 47.0;
	75582	 100.0	 26.25	 113.6	 -61.1	 1.0	 100.0	 1	 153.0	 47.0;
	75582	 101.5	 26.25	 113.6	 -61.1	 1.0	 100.0	 1	 156.0	 47.0;
	75582	 101.5	 26.25	 113.6	 -61.1	 1.0	 100.0	 1	 156.0	 47.0;
	75584	 121.0	 25.8	 111.6	 -60.0	 1.0	 100.0	 1	 152.0	 90.0;
	75584	 121.5	 25.8	 111.6	 -60.0	 1.0	 100.0	 1	 153.0	 90.0;
	75586	 125.0	 25.55	 110.6	 -59.5	 1.0	 100.0	 1	 150.0	 100.0;
	75586	 161.0	 49.45	 213.9	 -115.0	 1.0	 100.0	 1	 272.0	 50.0;
	75587	 116.5	 22.6	 97.9	 -52.7	 1.0	 100.0	 1	 133.0	 100.0;
	75587	 116.5	 22.6	 97.9	 -52.7	 1.0	 100.0	 1	 133.0	 100.0;
	75588	 122.5	 0.0	 0.0	 0.0	 1.0	 100.0	 1	 145.0	 100.0;
	75589	 16.05	 0.0	 66.1	 -66.1	 1.0	 100.0	 1	 32.1	 0.0;
	75592	 93.0	 19.5	 84.3	 -45.3	 1.0	 100.0	 1	 116.0	 70.0;
	75592	 184.5	 40.15	 173.8	 -93.5	 1.0	 100.0	 1	 229.0	 140.0;
	75592	 239.0	 52.1	 225.5	 -121.3	 1.0	 100.0	 1	 303.0	 175.0;
	75593	 102.0	 10.2	 65.4	 -45.0	 1.0	 100.0	 1	 115.0	 89.0;
	75593	 102.0	 10.2	 65.4	 -45.0	 1.0	 100.0	 1	 115.0	 89.0;
	75595	 90.5	 10.2	 65.4	 -45.0	 1.0	 100.0	 1	 115.0	 66.0;
	75595	 90.0	 10.2	 65.4	 -45.0	 1.0	 100.0	 1	 114.0	 66.0;
	75598	 109.0	 10.2	 65.4	 -45.0	 1.0	 100.0	 1	 114.0	 104.0;
	75598	 109.5	 10.2	 65.4	 -45.0	 1.0	 100.0	 1	 115.0	 104.0;
	75598	 109.5	 10.2	 65.4	 -45.0	 1.0	 100.0	 1	 115.0	 104.0;
	75598	 109.0	 10.2	 65.4	 -45.0	 1.0	 100.0	 1	 114.0	 104.0;
	75599	 73.5	 16.35	 70.7	 -38.0	 1.0	 100.0	 1	 97.0	 50.0;
	75599	 68.0	 16.35	 70.7	 -38.0	 1.0	 100.0	 1	 97.0	 39.0;
	75599	 68.0	 16.35	 70.7	 -38.0	 1.0	 100.0	 1	 97.0	 39.0;
	75599	 68.0	 16.35	 70.7	 -38.0	 1.0	 100.0	 1	 97.0	 39.0;
	75601	 72.0	 16.35	 70.7	 -38.0	 1.0	 100.0	 1	 97.0	 47.0;
	75601	 72.0	 16.35	 70.7	 -38.0	 1.0	 100.0	 1	 97.0	 47.0;
	75601	 72.0	 16.35	 70.7	 -38.0	 1.0	 100.0	 1	 97.0	 47.0;
	75602	 63.0	 16.1	 69.7	 -37.5	 1.0	 100.0	 1	 91.0	 35.0;
	75602	 212.5	 55.5	 240.2	 -129.2	 1.0	 100.0	 1	 310.0	 115.0;
	75603	 44.1	 0.0	 45.0	 -45.0	 1.0	 100.0	 1	 88.2	 0.0;
	75607	 32.16	 0.0	 44.3	 -44.3	 1.0	 100.0	 1	 64.32	 0.0;
	75608	 32.05	 0.0	 44.3	 -44.3	 1.0	 100.0	 1	 64.1	 0.0;
	75611	 130.0	 15.65	 100.4	 -69.1	 1.0	 100.0	 1	 170.0	 90.0;
	75611	 62.0	 0.0	 29.6	 -29.6	 1.0	 100.0	 1	 76.0	 48.0;
	75611	 62.0	 6.8	 43.7	 -30.1	 1.0	 100.0	 1	 76.0	 48.0;
	75611	 131.5	 32.95	 142.6	 -76.7	 1.0	 100.0	 1	 188.0	 75.0;
	75612	 59.5	 12.75	 55.2	 -29.7	 1.0	 100.0	 1	 74.0	 45.0;
	75612	 59.5	 12.75	 55.2	 -29.7	 1.0	 100.0	 1	 74.0	 45.0;
	75612	 60.5	 12.75	 55.2	 -29.7	 1.0	 100.0	 1	 76.0	 45.0;
	75612	 60.5	 12.75	 55.2	 -29.7	 1.0	 100.0	 1	 76.0	 45.0;
	75614	 59.5	 12.4	 53.6	 -28.8	 1.0	 100.0	 1	 74.0	 45.0;
	75614	 59.5	 12.4	 53.6	 -28.8	 1.0	 100.0	 1	 74.0	 45.0;
	75614	 59.5	 12.4	 53.6	 -28.8	 1.0	 100.0	 1	 74.0	 45.0;
	75614	 59.5	 12.4	 53.6	 -28.8	 1.0	 100.0	 1	 74.0	 45.0;
	75614	 58.5	 12.4	 53.6	 -28.8	 1.0	 100.0	 1	 72.0	 45.0;
	75614	 59.5	 12.4	 53.6	 -28.8	 1.0	 100.0	 1	 74.0	 45.0;
	75614	 58.5	 12.4	 53.6	 -28.8	 1.0	 100.0	 1	 72.0	 45.0;
	75614	 58.5	 12.4	 53.6	 -28.8	 1.0	 100.0	 1	 72.0	 45.0;
	75615	 44.5	 15.65	 56.3	 -25.0	 1.0	 100.0	 1	 64.0	 25.0;
	75615	 135.0	 33.1	 143.3	 -77.1	 1.0	 100.0	 1	 190.0	 80.0;
	75618	 45.5	 10.15	 44.0	 -23.7	 1.0	 100.0	 1	 59.0	 32.0;
	75618	 44.5	 10.15	 44.0	 -23.7	 1.0	 100.0	 1	 57.0	 32.0;
	75618	 46.5	 10.15	 44.0	 -23.7	 1.0	 100.0	 1	 61.0	 32.0;
	75618	 46.5	 10.15	 44.0	 -23.7	 1.0	 100.0	 1	 61.0	 32.0;
	75618	 45.5	 10.15	 44.0	 -23.7	 1.0	 100.0	 1	 59.0	 32.0;
	75618	 46.5	 10.15	 44.0	 -23.7	 1.0	 100.0	 1	 61.0	 32.0;
	75621	 28.5	 8.75	 37.8	 -20.3	 1.0	 100.0	 1	 52.0	 5.0;
	75621	 82.0	 9.4	 60.5	 -41.7	 1.0	 100.0	 1	 97.0	 67.0;
	75623	 41.5	 8.6	 37.2	 -20.0	 1.0	 100.0	 1	 51.0	 32.0;
	75623	 41.5	 8.6	 37.2	 -20.0	 1.0	 100.0	 1	 51.0	 32.0;
	75623	 42.0	 8.65	 37.5	 -20.2	 1.0	 100.0	 1	 52.0	 32.0;
	75623	 42.0	 8.65	 37.5	 -20.2	 1.0	 100.0	 1	 52.0	 32.0;
	75623	 42.0	 8.65	 37.5	 -20.2	 1.0	 100.0	 1	 52.0	 32.0;
	75623	 42.0	 8.65	 37.5	 -20.2	 1.0	 100.0	 1	 52.0	 32.0;
	75623	 42.0	 8.65	 37.5	 -20.2	 1.0	 100.0	 1	 52.0	 32.0;
	75623	 42.0	 8.65	 37.5	 -20.2	 1.0	 100.0	 1	 52.0	 32.0;
	75625	 31.75	 8.45	 36.5	 -19.6	 1.0	 100.0	 1	 51.0	 12.5;
	75625	 31.75	 8.45	 36.5	 -19.6	 1.0	 100.0	 1	 51.0	 12.5;
	75625	 31.75	 8.45	 36.5	 -19.6	 1.0	 100.0	 1	 51.0	 12.5;
	75625	 31.25	 8.45	 36.5	 -19.6	 1.0	 100.0	 1	 50.0	 12.5;
	75625	 31.25	 8.45	 36.5	 -19.6	 1.0	 100.0	 1	 50.0	 12.5;
	75625	 30.75	 8.45	 36.5	 -19.6	 1.0	 100.0	 1	 49.0	 12.5;
	75626	 32.0	 7.25	 31.5	 -17.0	 1.0	 100.0	 1	 44.0	 20.0;
...
];

%% generator cost data
%	2	startup	shutdown	n	c(n-1)	...	c0
mpc.gencost = [
	2	 0.0	 0.0	 3	   0.000000	   0.000000	   0.000000;
	2	 0.0	 0.0	 3	   0.000000	   0.000391	   0.000000;
	2	 0.0	 0.0	 3	   0.000000	  21.680000	 -14.320000;
	2	 0.0	 0.0	 3	   0.000000	  21.680000	 -14.320000;
	2	 0.0	 0.0	 3	   0.000000	  24.720000	 -27.310000;
	2	 0.0	 0.0	 3	   0.000000	  32.210000	 -53.610000;
	2	 0.0	 0.0	 3	   0.000000	  35.280000	 -116.900000;
	2	 0.0	 0.0	 3	   0.000000	  22.070000	 -30.980000;
	2	 0.0	 0.0	 3	   0.000000	  17.330000	 -40.960000;
	2	 0.0	 0.0	 3	   0.000000	  17.330000	 -40.960000;
	2	 0.0	 0.0	 3	   0.000000	  17.330000	 -40.960000;
	2	 0.0	 0.0	 3	   0.000000	  16.710000	 -19.400000;
	2	 0.0	 0.0	 3	   0.000000	  16.710000	 -19.400000;
	2	 0.0	 0.0	 3	   0.000000	   0.000243	   0.000000;
	2	 0.0	 0.0	 3	   0.000000	  25.270000	 -64.550000;
	2	 0.0	 0.0	 3	   0.000000	  24.580000	 -44.310000;
	2	 0.0	 0.0	 3	   0.000000	  21.410000	 -12.810000;
	2	 0.0	 0.0	 3	   0.000000	  22.720000	 -18.190000;
	2	 0.0	 0.0	 3	   0.003992	  24.190000	  -1.790000;
	2	 0.0	 0.0	 3	   0.008982	  20.780000	  -3.640000;
	2	 0.0	 0.0	 3	   0.002996	   3.393000	   0.000000;
	2	 0.0	 0.0	 3	   0.016920	  27.110000	  -1.372000;
	2	 0.0	 0.0	 3	   0.000000	   0.000155	   0.000000;
	2	 0.0	 0.0	 3	   0.000000	  30.800000	 -365.000000;
	2	 0.0	 0.0	 3	   0.000000	  30.780000	 -362.200000;
	2	 0.0	 0.0	 3	   0.017900	  25.680000	  -1.621000;
	2	 0.0	 0.0	 3	   0.000000	   0.000000	   0.000000;
	2	 0.0	 0.0	 3	   0.000000	  22.170000	 -509.800000;
	2	 0.0	 0.0	 3	   0.000000	  22.170000	 -509.800000;
	2	 0.0	 0.0	 3	   0.032850	  15.600000	  -3.428000;
	2	 0.0	 0.0	 3	   0.000000	   0.000118	   0.000000;
	2	 0.0	 0.0	 3	   0.000000	   0.000000	   0.000000;
	2	 0.0	 0.0	 3	   0.000000	   0.018520	   0.000000;
	2	 0.0	 0.0	 3	   0.000000	   0.001381	   0.000000;
	2	 0.0	 0.0	 3	   0.000000	   0.000118	   0.000000;
	2	 0.0	 0.0	 3	   0.000000	  19.650000	 -138.000000;
	2	 0.0	 0.0	 3	   0.005980	  18.500000	   0.000000;
	2	 0.0	 0.0	 3	   0.000000	  20.010000	 -611.700000;
	2	 0.0	 0.0	 3	   0.000000	  26.010000	 -70.960000;
	2	 0.0	 0.0	 3	   0.000000	   0.000177	   0.000000;
	2	 0.0	 0.0	 3	   0.000000	   0.000130	   0.000000;
	2	 0.0	 0.0	 3	   0.000000	   0.000150	   0.000000;
	2	 0.0	 0.0	 3	   0.000000	   0.000129	   0.000000;
	2	 0.0	 0.0	 3	   0.000000	   0.000112	   0.000000;
	2	 0.0	 0.0	 3	   0.000000	  33.010000	 -78.110000;
	2	 0.0	 0.0	 3	   0.000000	  31.660000	   0.000000;
	2	 0.0	 0.0	 3	   0.000000	  24.910000	 -20.830000;
	2	 0.0	 0.0	 3	   0.000000	  25.190000	 -29.370000;
	2	 0.0	 0.0	 3	   0.000000	  25.480000	 -39.350000;
	2	 0.0	 0.0	 3	   0.000000	  20.370000	 -67.180000;
	2	 0.0	 0.0	 3	   0.000000	  20.370000	 -67.180000;
	2	 0.0	 0.0	 3	   0.000000	  20.320000	 -65.500000;
	2	 0.0	 0.0	 3	   0.000000	   0.000423	   0.000000;
	2	 0.0	 0.0	 3	   0.000000	  25.600000	 -25.460000;
	2	 0.0	 0.0	 3	   0.000000	  25.250000	 -69.140000;
	2	 0.0	 0.0	 3	   0.002993	  16.880000	  -1.974000;
	2	 0.0	 0.0	 3	   0.002993	  18.510000	  -1.943000;
	2	 0.0	 0.0	 3	   0.000000	  19.620000	 -12.570000;
	2	 0.0	 0.0	 3	   0.000000	  19.620000	 -12.570000;
	2	 0.0	 0.0	 3	   0.000000	  22.790000	 -20.460000;
	2	 0.0	 0.0	 3	   0.000000	  32.740000	 -14.500000;
	2	 0.0	 0.0	 3	   0.000000	  28.270000	 -183.300000;
	2	 0.0	 0.0	 3	   0.000000	  29.090000	 -11.820000;
	2	 0.0	 0.0	 3	   0.000000	  22.540000	 -11.220000;
	2	 0.0	 0.0	 3	   0.000000	  29.210000	 -63.390000;
	2	 0.0	 0.0	 3	   0.000000	  26.670000	 -16.910000;
	2	 0.0	 0.0	 3	   0.000000	   0.000425	   0.000000;
	2	 0.0	 0.0	 3	   0.000000	   0.000469	   0.000000;
	2	 0.0	 0.0	 3	   0.018890	  24.140000	  -1.432000;
	2	 0.0	 0.0	 3	   0.000000	  30.880000	 -53.580000;
	2	 0.0	 0.0	 3	   0.000000	  27.160000	 -16.200000;
	2	 0.0	 0.0	 3	   0.000000	  29.590000	 -110.700000;
	2	 0.0	 0.0	 3	   0.000000	  29.140000	 -18.180000;
	2	 0.0	 0.0	 3	   0.000000	   0.000282	   0.000000;
	2	 0.0	 0.0	 3	   0.000000	   4.457000	 -705.100000;
	2	 0.0	 0.0	 3	   0.005989	   2.727000	  -8.546000;
	2	 0.0	 0.0	 3	   0.003997	   3.082000	  -1.356000;
	2	 0.0	 0.0	 3	   0.003997	   3.082000	  -1.353000;
	2	 0.0	 0.0	 3	   0.000999	   2.509000	   0.000000;
	2	 0.0	 0.0	 3	   0.000999	   2.908000	   0.000000;
	2	 0.0	 0.0	 3	   0.000999	   2.908000	   0.000000;
	2	 0.0	 0.0	 3	   0.000999	   3.250000	   0.000000;
	2	 0.0	 0.0	 3	   0.000999	   3.250000	   0.000000;
	2	 0.0	 0.0	 3	   0.004989	  28.550000	  -2.813000;
	2	 0.0	 0.0	 3	   0.004989	  26.970000	  -2.813000;
	2	 0.0	 0.0	 3	   0.006990	  24.990000	  -1.601000;
	2	 0.0	 0.0	 3	   0.006990	  28.610000	  -1.581000;
	2	 0.0	 0.0	 3	   0.001996	  30.170000	   0.000000;
	2	 0.0	 0.0	 3	   0.001996	  33.070000	   0.000000;
	2	 0.0	 0.0	 3	   0.001996	  29.630000	   0.000000;
	2	 0.0	 0.0	 3	   0.000000	  32.940000	 -317.200000;
	2	 0.0	 0.0	 3	   0.000000	  29.500000	 -317.200000;
	2	 0.0	 0.0	 3	   0.007978	  30.420000	  -4.370000;
	2	 0.0	 0.0	 3	   0.005984	  20.480000	   0.000000;
	2	 0.0	 0.0	 3	   0.000000	  29.170000	 -171.200000;
	2	 0.0	 0.0	 3	   0.000000	  27.100000	 -140.500000;
	2	 0.0	 0.0	 3	   0.000000	  25.820000	 -349.200000;
	2	 0.0	 0.0	 3	   0.000000	  47.090000	  -5.802000;
	2	 0.0	 0.0	 3	   0.000000	  47.090000	  -5.802000;
	2	 0.0	 0.0	 3	   0.000000	  47.090000	  -5.802000;
	2	 0.0	 0.0	 3	   0.000000	  47.080000	  -5.543000;
	2	 0.0	 0.0	 3	   0.000000	  30.430000	 -110.100000;
	2	 0.0	 0.0	 3	   0.005982	  29.240000	   0.000000;
	2	 0.0	 0.0	 3	   0.000000	  30.590000	 -253.400000;
	2	 0.0	 0.0	 3	   0.000000	  33.270000	 -288.800000;
	2	 0.0	 0.0	 3	   0.000000	   0.000118	   0.000000;
	2	 0.0	 0.0	 3	   0.000000	  26.270000	 -105.900000;
	2	 0.0	 0.0	 3	   0.000000	  28.960000	 -257.000000;
	2	 0.0	 0.0	 3	   0.000000	  24.950000	 -411.300000;
	2	 0.0	 0.0	 3	   0.000000	  21.520000	 -52.910000;
	2	 0.0	 0.0	 3	   0.000000	  22.320000	 -105.800000;
	2	 0.0	 0.0	 3	   0.000000	   0.000000	   0.000000;
	2	 0.0	 0.0	 3	   0.000000	  27.480000	 -243.300000;
	2	 0.0	 0.0	 3	   0.000000	  27.810000	 -295.700000;
	2	 0.0	 0.0	 3	   0.000000	   0.000116	   0.000000;
	2	 0.0	 0.0	 3	   0.000000	  65.570000	 -59.670000;
	2	 0.0	 0.0	 3	   0.000000	   0.000110	   0.000000;
	2	 0.0	 0.0	 3	   0.000000	   0.000000	   0.000000;
	2	 0.0	 0.0	 3	   0.000000	  38.810000	 -205.300000;
	2	 0.0	 0.0	 3	   0.000000	  34.660000	 -213.400000;
	2	 0.0	 0.0	 3	   0.000000	  32.450000	 -147.100000;
	2	 0.0	 0.0	 3	   0.004991	  33.340000	  -1.446000;
	2	 0.0	 0.0	 3	   0.017890	  26.170000	  -1.412000;
	2	 0.0	 0.0	 3	   0.017890	  27.340000	  -1.412000;
	2	 0.0	 0.0	 3	   0.017900	  27.980000	  -1.419000;
	2	 0.0	 0.0	 3	   0.017890	  26.190000	  -1.412000;
	2	 0.0	 0.0	 3	   0.017900	  26.030000	  -1.419000;
	2	 0.0	 0.0	 3	   0.017900	  29.520000	  -1.419000;
	2	 0.0	 0.0	 3	   0.000000	  23.720000	 -538.400000;
	2	 0.0	 0.0	 3	   0.000000	  23.760000	 -543.000000;
	2	 0.0	 0.0	 3	   0.000000	  20.280000	 -603.600000;
	2	 0.0	 0.0	 3	   0.036900	  12.510000	  -3.843000;
	2	 0.0	 0.0	 3	   0.000000	  72.190000	 -28.080000;
	2	 0.0	 0.0	 3	   0.000000	  72.190000	 -28.080000;
	2	 0.0	 0.0	 3	   0.000000	  66.840000	 -140.700000;
	2	 0.0	 0.0	 3	   0.000000	   0.000310	   0.000000;
	2	 0.0	 0.0	 3	   0.000000	  28.700000	 -118.000000;
	2	 0.0	 0.0	 3	   0.000000	  24.690000	 -107.100000;
	2	 0.0	 0.0	 3	   0.000000	  24.520000	 -180.200000;
	2	 0.0	 0.0	 3	   0.000000	  20.060000	 -139.500000;
	2	 0.0	 0.0	 3	   0.000000	  20.060000	 -139.500000;
	2	 0.0	 0.0	 3	   0.000000	  22.590000	 -137.800000;
	2	 0.0	 0.0	 3	   0.000000	  22.570000	 -136.300000;
	2	 0.0	 0.0	 3	   0.000000	  23.690000	 -144.400000;
	2	 0.0	 0.0	 3	   0.000000	  23.710000	 -145.900000;
	2	 0.0	 0.0	 3	   0.000000	  23.710000	 -145.900000;
	2	 0.0	 0.0	 3	   0.000000	  23.690000	 -144.400000;
	2	 0.0	 0.0	 3	   0.000000	  19.370000	 -62.690000;
	2	 0.0	 0.0	 3	   0.000000	  19.270000	 -53.670000;
	2	 0.0	 0.0	 3	   0.000000	  19.270000	 -53.670000;
	2	 0.0	 0.0	 3	   0.000000	  19.270000	 -53.670000;
	2	 0.0	 0.0	 3	   0.000000	  21.850000	 -87.580000;
	2	 0.0	 0.0	 3	   0.000000	  21.850000	 -87.580000;
	2	 0.0	 0.0	 3	   0.000000	  21.850000	 -87.580000;
	2	 0.0	 0.0	 3	   0.000000	  34.910000	 -96.250000;
	2	 0.0	 0.0	 3	   0.000000	  27.970000	 -142.700000;
	2	 0.0	 0.0	 3	   0.000000	   0.000113	   0.000000;
	2	 0.0	 0.0	 3	   0.000000	   0.000155	   0.000000;
	2	 0.0	 0.0	 3	   0.000000	   0.000156	   0.000000;
	2	 0.0	 0.0	 3	   0.000000	  31.400000	 -196.000000;
	2	 0.0	 0.0	 3	   0.000000	  36.210000	 -84.550000;
	2	 0.0	 0.0	 3	   0.000000	  37.940000	 -84.550000;
	2	 0.0	 0.0	 3	   0.000000	  27.020000	 -18.240000;
	2	 0.0	 0.0	 3	   0.000000	  20.510000	 -44.580000;
	2	 0.0	 0.0	 3	   0.000000	  20.510000	 -44.580000;
	2	 0.0	 0.0	 3	   0.000000	  20.530000	 -46.150000;
	2	 0.0	 0.0	 3	   0.000000	  20.530000	 -46.150000;
	2	 0.0	 0.0	 3	   0.000000	  23.720000	 -40.860000;
	2	 0.0	 0.0	 3	   0.000000	  23.720000	 -40.860000;
	2	 0.0	 0.0	 3	   0.000000	  23.720000	 -40.860000;
	2	 0.0	 0.0	 3	   0.000000	  23.720000	 -40.860000;
	2	 0.0	 0.0	 3	   0.000000	  23.700000	 -39.450000;
	2	 0.0	 0.0	 3	   0.000000	  23.720000	 -40.860000;
	2	 0.0	 0.0	 3	   0.000000	  23.700000	 -39.450000;
	2	 0.0	 0.0	 3	   0.000000	  23.700000	 -39.450000;
	2	 0.0	 0.0	 3	   0.000000	  28.920000	 -48.030000;
	2	 0.0	 0.0	 3	   0.000000	  27.110000	 -57.730000;
	2	 0.0	 0.0	 3	   0.000000	  20.460000	 -34.910000;
	2	 0.0	 0.0	 3	   0.000000	  20.420000	 -33.350000;
	2	 0.0	 0.0	 3	   0.000000	  20.500000	 -36.490000;
	2	 0.0	 0.0	 3	   0.000000	  20.500000	 -36.490000;
	2	 0.0	 0.0	 3	   0.000000	  20.460000	 -34.910000;
	2	 0.0	 0.0	 3	   0.000000	  20.500000	 -36.490000;
	2	 0.0	 0.0	 3	   0.000000	  15.390000	 -25.350000;
	2	 0.0	 0.0	 3	   0.000000	  18.370000	 -84.040000;
	2	 0.0	 0.0	 3	   0.000000	  19.320000	 -64.960000;
	2	 0.0	 0.0	 3	   0.000000	  19.320000	 -64.960000;
	2	 0.0	 0.0	 3	   0.000000	  19.370000	 -66.600000;
	2	 0.0	 0.0	 3	   0.000000	  19.370000	 -66.600000;
	2	 0.0	 0.0	 3	   0.000000	  19.370000	 -66.600000;
	2	 0.0	 0.0	 3	   0.000000	  19.370000	 -66.600000;
	2	 0.0	 0.0	 3	   0.000000	  19.370000	 -66.600000;
	2	 0.0	 0.0	 3	   0.000000	  19.370000	 -66.600000;
	2	 0.0	 0.0	 3	   0.000000	  18.460000	 -34.430000;
	2	 0.0	 0.0	 3	   0.000000	  18.460000	 -34.430000;
	2	 0.0	 0.0	 3	   0.000000	  18.460000	 -34.430000;
	2	 0.0	 0.0	 3	   0.000000	  18.420000	 -33.390000;
	2	 0.0	 0.0	 3	   0.000000	  18.420000	 -33.390000;
	2	 0.0	 0.0	 3	   0.000000	  18.380000	 -32.360000;
	2	 0.0	 0.0	 3	   0.000000	  18.410000	 -34.610000;
...
];

%% branch data
%	fbus	tbus	r	x	b	rateA	rateB	rateC	ratio	angle	status	angmin	angmax
mpc.branch = [
	39876	 44106	 0.00473964	 0.05506	 0.02232	 397.0	 397.0	 397.0	 0.0	 0.0	 1	 -30.0	 30.0;
	39877	 43705	 0.0137014	 0.04906	 0.00101	 88.75	 88.75	 144.0	 0.0	 0.0	 1	 -30.0	 30.0;
	39879	 43441	 0.000993929	 0.01159	 0.00426	 384.0	 384.0	 384.0	 0.0	 0.0	 1	 -30.0	 30.0;
	39879	 76813	 0.00547071	 0.01653	 0.0044	 148.0	 148.0	 148.0	 0.0	 0.0	 1	 -30.0	 30.0;
	39880	 75452	 0.00416464	 0.01714	 0.00971	 294.0	 294.0	 294.0	 0.0	 0.0	 1	 -30.0	 30.0;
	39880	 75520	 0.0010925	 0.01639	 0.00529	 434.0	 434.0	 434.0	 0.0	 0.0	 1	 -30.0	 30.0;
	39881	 43384	 0.168861	 0.47758	 0.0091	 73.75	 73.75	 73.75	 0.0	 0.0	 1	 -30.0	 30.0;
	39881	 43385	 0.152334	 0.43077	 0.00821	 73.75	 73.75	 73.75	 0.0	 0.0	 1	 -30.0	 30.0;
	39882	 43874	 0.04002	 0.11537	 0.00211	 73.75	 73.75	 73.75	 0.0	 0.0	 1	 -30.0	 30.0;
	39882	 43877	 0.0138246	 0.06475	 0.00111	 100.0	 100.0	 100.0	 0.0	 0.0	 1	 -30.0	 30.0;
	39883	 43294	 0.0895111	 0.25811	 0.00472	 73.75	 73.75	 73.75	 0.0	 0.0	 1	 -30.0	 30.0;
	39883	 43554	 0.131174	 0.40161	 0.00651	 73.75	 73.75	 73.75	 0.0	 0.0	 1	 -30.0	 30.0;
	39884	 43409	 0.0218993	 0.10372	 0.00173	 100.0	 100.0	 144.0	 0.0	 0.0	 1	 -30.0	 30.0;
	39886	 43390	 0.0985796	 0.3053	 0.00483	 73.75	 73.75	 73.75	 0.0	 0.0	 1	 -30.0	 30.0;
	39886	 43391	 0.0671107	 0.21594	 0.00316	 73.75	 73.75	 73.75	 0.0	 0.0	 1	 -30.0	 30.0;
	39886	 43394	 0.0585432	 0.18126	 0.00287	 73.75	 73.75	 73.75	 0.0	 0.0	 1	 -30.0	 30.0;
	39887	 44076	 0.0810832	 0.25378	 0.00393	 73.75	 73.75	 73.75	 0.0	 0.0	 1	 -30.0	 30.0;
	39887	 44077	 0.0791118	 0.2281	 0.00417	 73.75	 73.75	 73.75	 0.0	 0.0	 1	 -30.0	 30.0;
	39889	 43565	 0.156991	 0.40835	 0.00923	 73.75	 73.75	 73.75	 0.0	 0.0	 1	 -30.0	 30.0;
	39889	 43567	 0.0918029	 0.27363	 0.00468	 73.75	 73.75	 73.75	 0.0	 0.0	 1	 -30.0	 30.0;
	39889	 44015	 0.0530479	 0.1603	 0.00266	 73.75	 73.75	 73.75	 0.0	 0.0	 1	 -30.0	 30.0;
	39889	 44016	 0.0825371	 0.25559	 0.00404	 73.75	 73.75	 73.75	 0.0	 0.0	 1	 -30.0	 30.0;
	39890	 76797	 0.00680964	 0.0852	 0.16798	 592.0	 592.0	 592.0	 0.0	 0.0	 1	 -30.0	 30.0;
	39891	 42755	 0.00161821	 0.00589	 0.00133	 160.0	 160.0	 160.0	 0.0	 0.0	 1	 -30.0	 30.0;
	39891	 77043	 0.0001725	 0.00326	 0.00221	 813.0	 813.0	 813.0	 0.0	 0.0	 1	 -30.0	 30.0;
	39892	 43836	 0.0240104	 0.07433	 0.00118	 73.75	 73.75	 73.75	 0.0	 0.0	 1	 -30.0	 30.0;
	39892	 43851	 0.00280929	 0.00793	 0.00015	 86.25	 86.25	 86.25	 0.0	 0.0	 1	 -30.0	 30.0;
	39892	 43852	 0.0106868	 0.03647	 0.00047	 73.75	 73.75	 73.75	 0.0	 0.0	 1	 -30.0	 30.0;
	39895	 43491	 0.0586418	 0.16194	 0.00323	 73.75	 73.75	 73.75	 0.0	 0.0	 1	 -30.0	 30.0;
	39896	 43491	 0.0197636	 0.06235	 0.00118	 80.0	 80.0	 80.0	 0.0	 0.0	 1	 -30.0	 30.0;
	39896	 43492	 0.0866689	 0.27128	 0.0042	 73.75	 73.75	 73.75	 0.0	 0.0	 1	 -30.0	 30.0;
	39896	 43494	 0.117604	 0.33247	 0.00633	 73.75	 73.75	 73.75	 0.0	 0.0	 1	 -30.0	 30.0;
	39898	 43582	 0.0267539	 0.08187	 0.00133	 73.75	 73.75	 73.75	 0.0	 0.0	 1	 -30.0	 30.0;
	39898	 44468	 0.138895	 0.40063	 0.00733	 73.75	 73.75	 73.75	 0.0	 0.0	 1	 -30.0	 30.0;
	39901	 43682	 0.00463286	 0.01596	 0.0002	 73.75	 73.75	 144.0	 0.0	 0.0	 1	 -30.0	 30.0;
	39901	 43689	 0.00311321	 0.00973	 0.00015	 73.75	 73.75	 73.75	 0.0	 0.0	 1	 -30.0	 30.0;
	39902	 43491	 0.109135	 0.31471	 0.00576	 73.75	 73.75	 73.75	 0.0	 0.0	 1	 -30.0	 30.0;
	39902	 43778	 0.171358	 0.51823	 0.00862	 73.75	 73.75	 73.75	 0.0	 0.0	 1	 -30.0	 30.0;
	39905	 44108	 0.0756618	 0.21384	 0.00407	 73.75	 73.75	 73.75	 0.0	 0.0	 1	 -30.0	 30.0;
	39908	 43858	 0.0328	 0.10264	 0.00159	 73.75	 73.75	 73.75	 0.0	 0.0	 1	 -30.0	 30.0;
	39908	 43869	 0.020749	 0.06425	 0.00102	 73.75	 73.75	 73.75	 0.0	 0.0	 1	 -30.0	 30.0;
	39908	 43897	 0.006621	 0.01974	 0.00034	 73.75	 73.75	 73.75	 0.0	 0.0	 1	 -30.0	 30.0;
	39909	 43440	 0.000484643	 0.00817	 0.00018	 194.0	 194.0	 194.0	 0.0	 0.0	 1	 -30.0	 30.0;
	39909	 43442	 0.0284707	 0.08816	 0.00139	 73.75	 73.75	 73.75	 0.0	 0.0	 1	 -30.0	 30.0;
	39912	 43329	 0.0234846	 0.0677	 0.00124	 73.75	 73.75	 73.75	 0.0	 0.0	 1	 -30.0	 30.0;
	39912	 43332	 0.0279779	 0.08754	 0.00135	 73.75	 73.75	 73.75	 0.0	 0.0	 1	 -30.0	 30.0;
	39912	 43346	 0.0239939	 0.07953	 0.0011	 73.75	 73.75	 73.75	 0.0	 0.0	 1	 -30.0	 30.0;
	39912	 43353	 0.0224332	 0.07021	 0.00109	 73.75	 73.75	 144.0	 0.0	 0.0	 1	 -30.0	 30.0;
	39912	 43354	 0.0353214	 0.11053	 0.00171	 73.75	 73.75	 144.0	 0.0	 0.0	 1	 -30.0	 30.0;
	39914	 39927	 8.21429e-06	 8e-05	 0.0	 194.0	 194.0	 194.0	 0.0	 0.0	 1	 -30.0	 30.0;
	39915	 43309	 0.0278382	 0.07687	 0.00153	 73.75	 73.75	 73.75	 0.0	 0.0	 1	 -30.0	 30.0;
	39915	 43401	 0.0802536	 0.20863	 0.00471	 73.75	 73.75	 73.75	 0.0	 0.0	 1	 -30.0	 30.0;
	39917	 44072	 0.155652	 0.43015	 0.00859	 73.75	 73.75	 73.75	 0.0	 0.0	 1	 -30.0	 30.0;
	39922	 43407	 0.0396011	 0.11801	 0.00202	 73.75	 73.75	 73.75	 0.0	 0.0	 1	 -30.0	 30.0;
	39922	 44108	 0.10925	 0.33835	 0.00535	 73.75	 73.75	 73.75	 0.0	 0.0	 1	 -30.0	 30.0;
	39925	 43876	 0.00449321	 0.01375	 0.00356	 148.0	 148.0	 148.0	 0.0	 0.0	 1	 -30.0	 30.0;
	39926	 45587	 0.0524975	 0.17158	 0.00243	 73.75	 73.75	 73.75	 0.0	 0.0	 1	 -30.0	 30.0;
	39927	 43931	 0.167645	 0.50699	 0.00843	 73.75	 73.75	 73.75	 0.0	 0.0	 1	 -30.0	 30.0;
	39928	 44005	 0.00234929	 0.0071	 0.00012	 73.75	 73.75	 73.75	 0.0	 0.0	 1	 -30.0	 30.0;
	39929	 43533	 0.0265979	 0.0898	 0.00119	 73.75	 73.75	 73.75	 0.0	 0.0	 1	 -30.0	 30.0;
	39931	 43557	 0.0805082	 0.22754	 0.00433	 73.75	 73.75	 73.75	 0.0	 0.0	 1	 -30.0	 30.0;
	39934	 43729	 0.000648929	 0.00679	 0.00193	 327.0	 327.0	 327.0	 0.0	 0.0	 1	 -30.0	 30.0;
	39935	 44108	 0.0381389	 0.11365	 0.00194	 73.75	 73.75	 73.75	 0.0	 0.0	 1	 -30.0	 30.0;
	39935	 44110	 0.0352557	 0.10654	 0.00177	 73.75	 73.75	 73.75	 0.0	 0.0	 1	 -30.0	 30.0;
	39937	 43766	 0.0180468	 0.05523	 0.01431	 148.0	 148.0	 148.0	 0.0	 0.0	 1	 -30.0	 30.0;
	39937	 75513	 1e-07	 0.00016	 0.0	 625.0	 625.0	 625.0	 0.0	 0.0	 1	 -30.0	 30.0;
	39937	 76961	 0.00499429	 0.06006	 0.0206	 384.0	 384.0	 384.0	 0.0	 0.0	 1	 -30.0	 30.0;
	39938	 76961	 0.00167571	 0.02946	 0.00935	 480.0	 480.0	 480.0	 0.0	 0.0	 1	 -30.0	 30.0;
	39939	 43575	 0.0627407	 0.19427	 0.00307	 73.75	 73.75	 73.75	 0.0	 0.0	 1	 -30.0	 30.0;
	39939	 43577	 0.00284214	 0.00785	 0.00016	 73.75	 73.75	 73.75	 0.0	 0.0	 1	 -30.0	 30.0;
	39940	 43342	 0.00639071	 0.01874	 0.00033	 73.75	 73.75	 73.75	 0.0	 0.0	 1	 -30.0	 30.0;
	39940	 43347	 0.02346	 0.06991	 0.0012	 73.75	 73.75	 73.75	 0.0	 0.0	 1	 -30.0	 30.0;
	39943	 43697	 0.0120339	 0.03587	 0.00061	 73.75	 73.75	 73.75	 0.0	 0.0	 1	 -30.0	 30.0;
	39943	 43706	 0.0274111	 0.08168	 0.0014	 73.75	 73.75	 73.75	 0.0	 0.0	 1	 -30.0	 30.0;
	39945	 43379	 0.0693039	 0.2443	 0.00297	 73.75	 73.75	 73.75	 0.0	 0.0	 1	 -30.0	 30.0;
	39945	 43381	 0.0561118	 0.17373	 0.00275	 73.75	 73.75	 73.75	 0.0	 0.0	 1	 -30.0	 30.0;
	39945	 44103	 0.19771	 0.6128	 0.0097	 73.75	 73.75	 73.75	 0.0	 0.0	 1	 -30.0	 30.0;
	39946	 43560	 0.0613607	 0.17342	 0.0033	 73.75	 73.75	 73.75	 0.0	 0.0	 1	 -30.0	 30.0;
	39946	 44077	 0.00716286	 0.02304	 0.00034	 73.75	 73.75	 73.75	 0.0	 0.0	 1	 -30.0	 30.0;
	39952	 44076	 0.0371779	 0.10268	 0.00205	 73.75	 73.75	 73.75	 0.0	 0.0	 1	 -30.0	 30.0;
	39953	 41952	 0.0145229	 0.08308	 0.00127	 110.0	 110.0	 110.0	 0.0	 0.0	 1	 -30.0	 30.0;
	39953	 43153	 0.0126582	 0.13221	 0.00235	 163.75	 163.75	 163.75	 0.0	 0.0	 1	 -30.0	 30.0;
	39953	 43186	 0.0151718	 0.15336	 0.00375	 176.25	 176.25	 176.25	 0.0	 0.0	 1	 -30.0	 30.0;
	39954	 42667	 0.00239036	 0.04244	 0.00085	 194.0	 194.0	 194.0	 0.0	 0.0	 1	 -30.0	 30.0;
	39955	 42332	 0.0090275	 0.13734	 0.00375	 194.0	 194.0	 194.0	 0.0	 0.0	 1	 -30.0	 30.0;
	39955	 42345	 0.0036225	 0.06219	 0.00133	 194.0	 194.0	 194.0	 0.0	 0.0	 1	 -30.0	 30.0;
	39956	 41659	 0.0355186	 0.1584	 0.004	 110.0	 110.0	 110.0	 0.0	 0.0	 1	 -30.0	 30.0;
	39956	 42519	 0.0544361	 0.21255	 0.00526	 100.0	 100.0	 100.0	 0.0	 0.0	 1	 -30.0	 30.0;
	39957	 42332	 0.145056	 0.44936	 0.00711	 73.75	 73.75	 73.75	 0.0	 0.0	 1	 -30.0	 30.0;
	39957	 43134	 0.0187861	 0.19976	 0.00495	 183.75	 183.75	 183.75	 0.0	 0.0	 1	 -30.0	 30.0;
	39957	 43147	 0.00483	 0.06644	 0.00223	 194.0	 194.0	 194.0	 0.0	 0.0	 1	 -30.0	 30.0;
	39958	 75570	 0.000131429	 0.00172	 0.01652	 885.0	 885.0	 885.0	 0.0	 0.0	 1	 -30.0	 30.0;
	39958	 76816	 0.000106786	 0.00306	 0.05775	 1185.0	 1185.0	 1185.0	 0.0	 0.0	 1	 -30.0	 30.0;
	39958	 77027	 0.000246429	 0.00493	 0.07691	 1185.0	 1185.0	 1185.0	 0.0	 0.0	 1	 -30.0	 30.0;
	39959	 42962	 0.0120996	 0.03419	 0.01042	 148.0	 148.0	 148.0	 0.0	 0.0	 1	 -30.0	 30.0;
	39959	 76515	 0.00391	 0.03583	 0.00994	 298.0	 298.0	 298.0	 0.0	 0.0	 1	 -30.0	 30.0;
	39959	 76521	 0.002563	 0.03155	 0.00928	 87.0	 87.0	 87.0	 0.0	 0.0	 1	 -30.0	 30.0;
	39959	 76521	 0.002563	 0.03155	 0.00928	 87.0	 87.0	 87.0	 0.0	 0.0	 1	 -30.0	 30.0;
	39960	 39968	 0.0001725	 0.00204	 0.00084	 407.0	 407.0	 407.0	 0.0	 0.0	 1	 -30.0	 30.0;
	39960	 76668	 0.000599643	 0.00845	 0.00451	 627.0	 627.0	 627.0	 0.0	 0.0	 1	 -30.0	 30.0;
	39960	 76676	 0.00160179	 0.02001	 0.00633	 384.0	 384.0	 384.0	 0.0	 0.0	 1	 -30.0	 30.0;
	39960	 76678	 0.00181536	 0.01259	 0.00364	 257.0	 257.0	 257.0	 0.0	 0.0	 1	 -30.0	 30.0;
	39961	 42900	 0.0118286	 0.15082	 0.0023	 176.25	 176.25	 176.25	 0.0	 0.0	 1	 -30.0	 30.0;
	39961	 42901	 0.0669382	 0.2912	 0.00578	 100.0	 100.0	 100.0	 0.0	 0.0	 1	 -30.0	 30.0;
	39961	 42912	 0.090735	 0.46224	 0.00666	 100.0	 100.0	 100.0	 0.0	 0.0	 1	 -30.0	 30.0;
	39962	 42840	 0.02415	 0.18668	 0.00531	 156.25	 156.25	 156.25	 0.0	 0.0	 1	 -30.0	 30.0;
	39963	 40289	 0.156737	 0.48	 0.00778	 73.75	 73.75	 73.75	 0.0	 0.0	 1	 -30.0	 30.0;
	39963	 41900	 0.07176	 0.51403	 0.00608	 115.0	 115.0	 115.0	 0.0	 0.0	 1	 -30.0	 30.0;
	39963	 42006	 0.0218254	 0.14326	 0.00289	 128.75	 128.75	 128.75	 0.0	 0.0	 1	 -30.0	 30.0;
	39964	 41932	 0.132381	 0.40021	 0.00665	 73.75	 73.75	 73.75	 0.0	 0.0	 1	 -30.0	 30.0;
	39964	 41934	 0.0814693	 0.255	 0.00395	 73.75	 73.75	 73.75	 0.0	 0.0	 1	 -30.0	 30.0;
	39964	 41936	 0.0845414	 0.2555	 0.00425	 73.75	 73.75	 73.75	 0.0	 0.0	 1	 -30.0	 30.0;
	39965	 41931	 0.0505425	 0.15274	 0.00254	 73.75	 73.75	 73.75	 0.0	 0.0	 1	 -30.0	 30.0;
	39965	 41934	 0.0245196	 0.07069	 0.00129	 73.75	 73.75	 73.75	 0.0	 0.0	 1	 -30.0	 30.0;
	39965	 42711	 0.144095	 0.41566	 0.0076	 73.75	 73.75	 73.75	 0.0	 0.0	 1	 -30.0	 30.0;
	39965	 42713	 0.098785	 0.30592	 0.00484	 73.75	 73.75	 73.75	 0.0	 0.0	 1	 -30.0	 30.0;
	39966	 40279	 0.197743	 0.63726	 0.01159	 80.0	 80.0	 80.0	 0.0	 0.0	 1	 -30.0	 30.0;
	39966	 42640	 0.0708564	 0.2767	 0.00685	 100.0	 100.0	 100.0	 0.0	 0.0	 1	 -30.0	 30.0;
	39966	 42642	 0.0184821	 0.05656	 0.00092	 73.75	 73.75	 73.75	 0.0	 0.0	 1	 -30.0	 30.0;
	39967	 40690	 0.000492857	 0.0088	 0.00018	 194.0	 194.0	 194.0	 0.0	 0.0	 1	 -30.0	 30.0;
	39967	 41593	 0.00147857	 0.00987	 0.00019	 128.75	 128.75	 128.75	 0.0	 0.0	 1	 -30.0	 30.0;
	39967	 41599	 0.00441107	 0.02014	 0.00036	 100.0	 100.0	 100.0	 0.0	 0.0	 1	 -30.0	 30.0;
	39968	 76673	 0.000188929	 0.00339	 0.00104	 480.0	 480.0	 480.0	 0.0	 0.0	 1	 -30.0	 30.0;
	39969	 42227	 0.00575	 0.02587	 0.00048	 100.0	 100.0	 100.0	 0.0	 0.0	 1	 -30.0	 30.0;
	39969	 42236	 0.00530643	 0.03559	 0.0008	 137.5	 137.5	 137.5	 0.0	 0.0	 1	 -30.0	 30.0;
	39969	 42245	 0.0261871	 0.07399	 0.00141	 73.75	 73.75	 73.75	 0.0	 0.0	 1	 -30.0	 30.0;
	39970	 42367	 0.00785286	 0.02404	 0.00623	 148.0	 148.0	 148.0	 0.0	 0.0	 1	 -30.0	 30.0;
	39971	 40838	 0.00309679	 0.01812	 0.00035	 118.75	 118.75	 118.75	 0.0	 0.0	 1	 -30.0	 30.0;
	39971	 40839	 0.00325286	 0.02254	 0.00041	 128.75	 128.75	 128.75	 0.0	 0.0	 1	 -30.0	 30.0;
	39971	 40845	 0.00193036	 0.01554	 0.00031	 143.75	 143.75	 143.75	 0.0	 0.0	 1	 -30.0	 30.0;
	39971	 41517	 0.000139643	 0.00214	 6e-05	 194.0	 194.0	 194.0	 0.0	 0.0	 1	 -30.0	 30.0;
	39972	 41993	 0.0240596	 0.1083	 0.00201	 100.0	 100.0	 100.0	 0.0	 0.0	 1	 -30.0	 30.0;
	39972	 41994	 0.0996311	 0.30497	 0.00494	 73.75	 73.75	 73.75	 0.0	 0.0	 1	 -30.0	 30.0;
	39973	 41650	 0.0288321	 0.21337	 0.00394	 137.5	 137.5	 137.5	 0.0	 0.0	 1	 -30.0	 30.0;
	39973	 41654	 0.0134057	 0.05574	 0.00121	 100.0	 100.0	 100.0	 0.0	 0.0	 1	 -30.0	 30.0;
	39974	 43446	 0.0005175	 0.00884	 0.03668	 366.0	 366.0	 366.0	 0.0	 0.0	 1	 -30.0	 30.0;
	39974	 76537	 0.001142	 0.01258	 0.02479	 244.0	 244.0	 244.0	 0.0	 0.0	 1	 -30.0	 30.0;
	39974	 76537	 0.001142	 0.01258	 0.02479	 244.0	 244.0	 244.0	 0.0	 0.0	 1	 -30.0	 30.0;
	39975	 41950	 0.0381307	 0.10993	 0.00201	 73.75	 73.75	 73.75	 0.0	 0.0	 1	 -30.0	 30.0;
	39975	 42366	 0.0351243	 0.14265	 0.00226	 88.75	 88.75	 88.75	 0.0	 0.0	 1	 -30.0	 30.0;
	39976	 42214	 0.0397654	 0.12444	 0.00193	 73.75	 73.75	 73.75	 0.0	 0.0	 1	 -30.0	 30.0;
	39976	 42395	 0.126804	 0.39277	 0.00621	 73.75	 73.75	 73.75	 0.0	 0.0	 1	 -30.0	 30.0;
	39979	 43054	 0.00259571	 0.03571	 0.0012	 194.0	 194.0	 194.0	 0.0	 0.0	 1	 -30.0	 30.0;
	39979	 43055	 0.0109661	 0.0383	 0.00059	 80.0	 80.0	 80.0	 0.0	 0.0	 1	 -30.0	 30.0;
	39979	 43056	 0.0225154	 0.06709	 0.00115	 73.75	 73.75	 73.75	 0.0	 0.0	 1	 -30.0	 30.0;
	39979	 43085	 0.0249057	 0.07526	 0.00125	 73.75	 73.75	 73.75	 0.0	 0.0	 1	 -30.0	 30.0;
	39980	 40015	 0.000788571	 0.01596	 0.00024	 194.0	 194.0	 194.0	 0.0	 0.0	 1	 -30.0	 30.0;
	39981	 76679	 0.000451786	 0.0088	 0.00288	 523.0	 523.0	 523.0	 0.0	 0.0	 1	 -30.0	 30.0;
	39982	 41894	 0.0321589	 0.11514	 0.00236	 88.75	 88.75	 88.75	 0.0	 0.0	 1	 -30.0	 30.0;
	39982	 41901	 0.0715875	 0.2191	 0.00355	 73.75	 73.75	 73.75	 0.0	 0.0	 1	 -30.0	 30.0;
	39982	 42920	 0.0473471	 0.33053	 0.00411	 115.0	 115.0	 115.0	 0.0	 0.0	 1	 -30.0	 30.0;
	39983	 39984	 2.46429e-05	 0.0003	 1e-05	 194.0	 194.0	 194.0	 0.0	 0.0	 1	 -30.0	 30.0;
	39983	 43228	 0.00268607	 0.02466	 0.00073	 176.25	 176.25	 176.25	 0.0	 0.0	 1	 -30.0	 30.0;
	39983	 43239	 0.000451786	 0.00787	 0.00012	 194.0	 194.0	 194.0	 0.0	 0.0	 1	 -30.0	 30.0;
	39984	 43240	 0.00460821	 0.02501	 0.00042	 110.0	 110.0	 110.0	 0.0	 0.0	 1	 -30.0	 30.0;
	39985	 40827	 0.00705607	 0.02585	 0.00051	 88.75	 88.75	 88.75	 0.0	 0.0	 1	 -30.0	 30.0;
	39986	 40216	 0.123921	 0.42944	 0.00541	 73.75	 73.75	 73.75	 0.0	 0.0	 1	 -30.0	 30.0;
	39986	 42700	 0.0913429	 0.28593	 0.00443	 73.75	 73.75	 73.75	 0.0	 0.0	 1	 -30.0	 30.0;
	39986	 42924	 0.0388946	 0.17344	 0.00438	 110.0	 110.0	 110.0	 0.0	 0.0	 1	 -30.0	 30.0;
	39988	 76487	 0.0044275	 0.02567	 0.00744	 232.0	 232.0	 232.0	 0.0	 0.0	 1	 -30.0	 30.0;
	39988	 76597	 0.003795	 0.01073	 0.00327	 148.0	 148.0	 148.0	 0.0	 0.0	 1	 -30.0	 30.0;
	39989	 41987	 0.216093	 0.59756	 0.01194	 73.75	 73.75	 73.75	 0.0	 0.0	 1	 -30.0	 30.0;
	39989	 42375	 0.106589	 0.36759	 0.00467	 73.75	 73.75	 73.75	 0.0	 0.0	 1	 -30.0	 30.0;
	39990	 42596	 0.00952036	 0.02914	 0.00047	 73.75	 73.75	 73.75	 0.0	 0.0	 1	 -30.0	 30.0;
	39991	 42050	 0.0363729	 0.10991	 0.00183	 73.75	 73.75	 73.75	 0.0	 0.0	 1	 -30.0	 30.0;
	39991	 42058	 0.0116971	 0.03939	 0.00092	 88.75	 88.75	 88.75	 0.0	 0.0	 1	 -30.0	 30.0;
	39992	 40289	 0.029087	 0.1025	 0.00125	 144.0	 144.0	 144.0	 0.0	 0.0	 1	 -30.0	 30.0;
	39993	 41659	 0.0682032	 0.21347	 0.0033	 73.75	 73.75	 73.75	 0.0	 0.0	 1	 -30.0	 30.0;
	39993	 42723	 0.0479879	 0.15439	 0.00226	 73.75	 73.75	 73.75	 0.0	 0.0	 1	 -30.0	 30.0;
	39994	 76441	 0.003335	 0.00868	 0.00313	 148.0	 148.0	 148.0	 0.0	 0.0	 1	 -30.0	 30.0;
	39994	 76442	 0.00139643	 0.00641	 0.00362	 320.0	 320.0	 320.0	 0.0	 0.0	 1	 -30.0	 30.0;
	39994	 76448	 0.00388536	 0.01732	 0.00834	 294.0	 294.0	 294.0	 0.0	 0.0	 1	 -30.0	 30.0;
	39995	 41950	 0.0660675	 0.2278	 0.0029	 73.75	 73.75	 73.75	 0.0	 0.0	 1	 -30.0	 30.0;
	39995	 42345	 0.0371614	 0.1163	 0.0018	 73.75	 73.75	 144.0	 0.0	 0.0	 1	 -30.0	 30.0;
	39996	 42659	 0.100806	 0.30857	 0.005	 73.75	 73.75	 73.75	 0.0	 0.0	 1	 -30.0	 30.0;
	39997	 42928	 0.011385	 0.03217	 0.00061	 73.75	 73.75	 144.0	 0.0	 0.0	 1	 -30.0	 30.0;
	39998	 42960	 0.0874329	 0.26761	 0.00433	 73.75	 73.75	 144.0	 0.0	 0.0	 1	 -30.0	 30.0;
	39999	 42863	 0.0414657	 0.12355	 0.00211	 73.75	 73.75	 73.75	 0.0	 0.0	 1	 -30.0	 30.0;
	39999	 42889	 0.00196321	 0.01778	 0.00042	 163.75	 163.75	 163.75	 0.0	 0.0	 1	 -30.0	 30.0;
	40000	 43174	 0.0108182	 0.05068	 0.00087	 100.0	 100.0	 100.0	 0.0	 0.0	 1	 -30.0	 30.0;
	40000	 43179	 0.0035075	 0.0171	 0.00027	 100.0	 100.0	 100.0	 0.0	 0.0	 1	 -30.0	 30.0;
	40001	 43157	 0.00881393	 0.03143	 0.00037	 144.0	 144.0	 144.0	 0.0	 0.0	 1	 -30.0	 30.0;
	40003	 42535	 0.00545429	 0.01683	 0.00033	 80.0	 80.0	 80.0	 0.0	 0.0	 1	 -30.0	 30.0;
	40003	 42541	 0.0171432	 0.05285	 0.00105	 80.0	 80.0	 80.0	 0.0	 0.0	 1	 -30.0	 30.0;
	40004	 75781	 0.00510929	 0.01761	 0.01428	 294.0	 294.0	 294.0	 0.0	 0.0	 1	 -30.0	 30.0;
	40005	 42984	 0.0340975	 0.10557	 0.00167	 73.75	 73.75	 73.75	 0.0	 0.0	 1	 -30.0	 30.0;
	40005	 42987	 0.0364139	 0.1545	 0.00224	 88.75	 88.75	 88.75	 0.0	 0.0	 1	 -30.0	 30.0;
	40006	 42771	 0.00458357	 0.01913	 0.00029	 88.75	 88.75	 88.75	 0.0	 0.0	 1	 -30.0	 30.0;
	40006	 42790	 0.005536	 0.01439	 0.00032	 73.75	 73.75	 144.0	 0.0	 0.0	 1	 -30.0	 30.0;
...